<?xml version="1.0" encoding="UTF-8"?>

<!-- generated on 2025-11-05 15:30:17 by Eclipse SUMO netconvert Version 1.24.0
<netconvertConfiguration xmlns:xsi="http://www.w3.org/2001/XMLSchema-instance" xsi:noNamespaceSchemaLocation="http://sumo.dlr.de/xsd/netconvertConfiguration.xsd">

    <input>
        <node-files value="vietnamese_traffic_3x3\grid.nod.xml"/>
        <edge-files value="vietnamese_traffic_3x3\grid.edg.xml"/>
    </input>

    <output>
        <output-file value="vietnamese_traffic_3x3\grid.net.xml"/>
    </output>

    <tls_building>
        <tls.guess value="true"/>
    </tls_building>

    <junctions>
        <no-turnarounds value="false"/>
        <junctions.join value="true"/>
    </junctions>

</netconvertConfiguration>
-->

<net version="1.20" junctionCornerDetail="5" limitTurnSpeed="5.50" xmlns:xsi="http://www.w3.org/2001/XMLSchema-instance" xsi:noNamespaceSchemaLocation="http://sumo.dlr.de/xsd/net_file.xsd">

    <location netOffset="200.00,200.00" convBoundary="0.00,0.00,800.00,800.00" origBoundary="-200.00,-200.00,600.00,600.00" projParameter="!"/>

    <edge id=":n0_0" function="internal">
        <lane id=":n0_0_0" index="0" speed="6.51" length="9.03" shape="195.20,210.40 194.85,207.95 193.80,206.20 192.05,205.15 189.60,204.80"/>
    </edge>
    <edge id=":n0_1" function="internal">
        <lane id=":n0_1_0" index="0" speed="13.89" length="20.80" shape="195.20,210.40 195.20,189.60"/>
        <lane id=":n0_1_1" index="1" speed="13.89" length="20.80" shape="198.40,210.40 198.40,189.60"/>
    </edge>
    <edge id=":n0_3" function="internal">
        <lane id=":n0_3_0" index="0" speed="9.26" length="5.01" shape="198.40,210.40 199.11,205.44"/>
    </edge>
    <edge id=":n0_4" function="internal">
        <lane id=":n0_4_0" index="0" speed="3.65" length="1.44" shape="198.40,210.40 199.20,209.20"/>
    </edge>
    <edge id=":n0_20" function="internal">
        <lane id=":n0_20_0" index="0" speed="9.26" length="14.34" shape="199.11,205.44 199.15,205.15 201.40,201.40 205.15,199.15 210.40,198.40"/>
    </edge>
    <edge id=":n0_21" function="internal">
        <lane id=":n0_21_0" index="0" speed="3.65" length="3.23" shape="199.20,209.20 200.00,208.80 200.80,209.20 201.60,210.40"/>
    </edge>
    <edge id=":n0_5" function="internal">
        <lane id=":n0_5_0" index="0" speed="6.51" length="9.03" shape="210.40,204.80 207.95,205.15 206.20,206.20 205.15,207.95 204.80,210.40"/>
    </edge>
    <edge id=":n0_6" function="internal">
        <lane id=":n0_6_0" index="0" speed="13.89" length="20.80" shape="210.40,204.80 189.60,204.80"/>
        <lane id=":n0_6_1" index="1" speed="13.89" length="20.80" shape="210.40,201.60 189.60,201.60"/>
    </edge>
    <edge id=":n0_8" function="internal">
        <lane id=":n0_8_0" index="0" speed="9.26" length="5.01" shape="210.40,201.60 205.44,200.89"/>
    </edge>
    <edge id=":n0_9" function="internal">
        <lane id=":n0_9_0" index="0" speed="3.65" length="1.44" shape="210.40,201.60 209.20,200.80"/>
    </edge>
    <edge id=":n0_22" function="internal">
        <lane id=":n0_22_0" index="0" speed="9.26" length="14.34" shape="205.44,200.89 205.15,200.85 201.40,198.60 199.15,194.85 198.40,189.60"/>
    </edge>
    <edge id=":n0_23" function="internal">
        <lane id=":n0_23_0" index="0" speed="3.65" length="3.23" shape="209.20,200.80 208.80,200.00 209.20,199.20 210.40,198.40"/>
    </edge>
    <edge id=":n0_10" function="internal">
        <lane id=":n0_10_0" index="0" speed="6.51" length="9.03" shape="204.80,189.60 205.15,192.05 206.20,193.80 207.95,194.85 210.40,195.20"/>
    </edge>
    <edge id=":n0_11" function="internal">
        <lane id=":n0_11_0" index="0" speed="13.89" length="20.80" shape="204.80,189.60 204.80,210.40"/>
        <lane id=":n0_11_1" index="1" speed="13.89" length="20.80" shape="201.60,189.60 201.60,210.40"/>
    </edge>
    <edge id=":n0_13" function="internal">
        <lane id=":n0_13_0" index="0" speed="9.26" length="5.01" shape="201.60,189.60 200.89,194.56"/>
    </edge>
    <edge id=":n0_14" function="internal">
        <lane id=":n0_14_0" index="0" speed="3.65" length="1.44" shape="201.60,189.60 200.80,190.80"/>
    </edge>
    <edge id=":n0_24" function="internal">
        <lane id=":n0_24_0" index="0" speed="9.26" length="14.34" shape="200.89,194.56 200.85,194.85 198.60,198.60 194.85,200.85 189.60,201.60"/>
    </edge>
    <edge id=":n0_25" function="internal">
        <lane id=":n0_25_0" index="0" speed="3.65" length="3.23" shape="200.80,190.80 200.00,191.20 199.20,190.80 198.40,189.60"/>
    </edge>
    <edge id=":n0_15" function="internal">
        <lane id=":n0_15_0" index="0" speed="6.51" length="9.03" shape="189.60,195.20 192.05,194.85 193.80,193.80 194.85,192.05 195.20,189.60"/>
    </edge>
    <edge id=":n0_16" function="internal">
        <lane id=":n0_16_0" index="0" speed="13.89" length="20.80" shape="189.60,195.20 210.40,195.20"/>
        <lane id=":n0_16_1" index="1" speed="13.89" length="20.80" shape="189.60,198.40 210.40,198.40"/>
    </edge>
    <edge id=":n0_18" function="internal">
        <lane id=":n0_18_0" index="0" speed="9.26" length="5.01" shape="189.60,198.40 194.56,199.11"/>
    </edge>
    <edge id=":n0_19" function="internal">
        <lane id=":n0_19_0" index="0" speed="3.65" length="1.44" shape="189.60,198.40 190.80,199.20"/>
    </edge>
    <edge id=":n0_26" function="internal">
        <lane id=":n0_26_0" index="0" speed="9.26" length="14.34" shape="194.56,199.11 194.85,199.15 198.60,201.40 200.85,205.15 201.60,210.40"/>
    </edge>
    <edge id=":n0_27" function="internal">
        <lane id=":n0_27_0" index="0" speed="3.65" length="3.23" shape="190.80,199.20 191.20,200.00 190.80,200.80 189.60,201.60"/>
    </edge>
    <edge id=":n1_0" function="internal">
        <lane id=":n1_0_0" index="0" speed="6.51" length="9.03" shape="395.20,210.40 394.85,207.95 393.80,206.20 392.05,205.15 389.60,204.80"/>
    </edge>
    <edge id=":n1_1" function="internal">
        <lane id=":n1_1_0" index="0" speed="13.89" length="20.80" shape="395.20,210.40 395.20,189.60"/>
        <lane id=":n1_1_1" index="1" speed="13.89" length="20.80" shape="398.40,210.40 398.40,189.60"/>
    </edge>
    <edge id=":n1_3" function="internal">
        <lane id=":n1_3_0" index="0" speed="9.26" length="5.01" shape="398.40,210.40 399.11,205.44"/>
    </edge>
    <edge id=":n1_4" function="internal">
        <lane id=":n1_4_0" index="0" speed="3.65" length="1.44" shape="398.40,210.40 399.20,209.20"/>
    </edge>
    <edge id=":n1_20" function="internal">
        <lane id=":n1_20_0" index="0" speed="9.26" length="14.34" shape="399.11,205.44 399.15,205.15 401.40,201.40 405.15,199.15 410.40,198.40"/>
    </edge>
    <edge id=":n1_21" function="internal">
        <lane id=":n1_21_0" index="0" speed="3.65" length="3.23" shape="399.20,209.20 400.00,208.80 400.80,209.20 401.60,210.40"/>
    </edge>
    <edge id=":n1_5" function="internal">
        <lane id=":n1_5_0" index="0" speed="6.51" length="9.03" shape="410.40,204.80 407.95,205.15 406.20,206.20 405.15,207.95 404.80,210.40"/>
    </edge>
    <edge id=":n1_6" function="internal">
        <lane id=":n1_6_0" index="0" speed="13.89" length="20.80" shape="410.40,204.80 389.60,204.80"/>
        <lane id=":n1_6_1" index="1" speed="13.89" length="20.80" shape="410.40,201.60 389.60,201.60"/>
    </edge>
    <edge id=":n1_8" function="internal">
        <lane id=":n1_8_0" index="0" speed="9.26" length="5.01" shape="410.40,201.60 405.44,200.89"/>
    </edge>
    <edge id=":n1_9" function="internal">
        <lane id=":n1_9_0" index="0" speed="3.65" length="1.44" shape="410.40,201.60 409.20,200.80"/>
    </edge>
    <edge id=":n1_22" function="internal">
        <lane id=":n1_22_0" index="0" speed="9.26" length="14.34" shape="405.44,200.89 405.15,200.85 401.40,198.60 399.15,194.85 398.40,189.60"/>
    </edge>
    <edge id=":n1_23" function="internal">
        <lane id=":n1_23_0" index="0" speed="3.65" length="3.23" shape="409.20,200.80 408.80,200.00 409.20,199.20 410.40,198.40"/>
    </edge>
    <edge id=":n1_10" function="internal">
        <lane id=":n1_10_0" index="0" speed="6.51" length="9.03" shape="404.80,189.60 405.15,192.05 406.20,193.80 407.95,194.85 410.40,195.20"/>
    </edge>
    <edge id=":n1_11" function="internal">
        <lane id=":n1_11_0" index="0" speed="13.89" length="20.80" shape="404.80,189.60 404.80,210.40"/>
        <lane id=":n1_11_1" index="1" speed="13.89" length="20.80" shape="401.60,189.60 401.60,210.40"/>
    </edge>
    <edge id=":n1_13" function="internal">
        <lane id=":n1_13_0" index="0" speed="9.26" length="5.01" shape="401.60,189.60 400.89,194.56"/>
    </edge>
    <edge id=":n1_14" function="internal">
        <lane id=":n1_14_0" index="0" speed="3.65" length="1.44" shape="401.60,189.60 400.80,190.80"/>
    </edge>
    <edge id=":n1_24" function="internal">
        <lane id=":n1_24_0" index="0" speed="9.26" length="14.34" shape="400.89,194.56 400.85,194.85 398.60,198.60 394.85,200.85 389.60,201.60"/>
    </edge>
    <edge id=":n1_25" function="internal">
        <lane id=":n1_25_0" index="0" speed="3.65" length="3.23" shape="400.80,190.80 400.00,191.20 399.20,190.80 398.40,189.60"/>
    </edge>
    <edge id=":n1_15" function="internal">
        <lane id=":n1_15_0" index="0" speed="6.51" length="9.03" shape="389.60,195.20 392.05,194.85 393.80,193.80 394.85,192.05 395.20,189.60"/>
    </edge>
    <edge id=":n1_16" function="internal">
        <lane id=":n1_16_0" index="0" speed="13.89" length="20.80" shape="389.60,195.20 410.40,195.20"/>
        <lane id=":n1_16_1" index="1" speed="13.89" length="20.80" shape="389.60,198.40 410.40,198.40"/>
    </edge>
    <edge id=":n1_18" function="internal">
        <lane id=":n1_18_0" index="0" speed="9.26" length="5.01" shape="389.60,198.40 394.56,199.11"/>
    </edge>
    <edge id=":n1_19" function="internal">
        <lane id=":n1_19_0" index="0" speed="3.65" length="1.44" shape="389.60,198.40 390.80,199.20"/>
    </edge>
    <edge id=":n1_26" function="internal">
        <lane id=":n1_26_0" index="0" speed="9.26" length="14.34" shape="394.56,199.11 394.85,199.15 398.60,201.40 400.85,205.15 401.60,210.40"/>
    </edge>
    <edge id=":n1_27" function="internal">
        <lane id=":n1_27_0" index="0" speed="3.65" length="3.23" shape="390.80,199.20 391.20,200.00 390.80,200.80 389.60,201.60"/>
    </edge>
    <edge id=":n2_0" function="internal">
        <lane id=":n2_0_0" index="0" speed="6.51" length="9.03" shape="595.20,210.40 594.85,207.95 593.80,206.20 592.05,205.15 589.60,204.80"/>
    </edge>
    <edge id=":n2_1" function="internal">
        <lane id=":n2_1_0" index="0" speed="13.89" length="20.80" shape="595.20,210.40 595.20,189.60"/>
        <lane id=":n2_1_1" index="1" speed="13.89" length="20.80" shape="598.40,210.40 598.40,189.60"/>
    </edge>
    <edge id=":n2_3" function="internal">
        <lane id=":n2_3_0" index="0" speed="9.26" length="5.01" shape="598.40,210.40 599.11,205.44"/>
    </edge>
    <edge id=":n2_4" function="internal">
        <lane id=":n2_4_0" index="0" speed="3.65" length="1.44" shape="598.40,210.40 599.20,209.20"/>
    </edge>
    <edge id=":n2_20" function="internal">
        <lane id=":n2_20_0" index="0" speed="9.26" length="14.34" shape="599.11,205.44 599.15,205.15 601.40,201.40 605.15,199.15 610.40,198.40"/>
    </edge>
    <edge id=":n2_21" function="internal">
        <lane id=":n2_21_0" index="0" speed="3.65" length="3.23" shape="599.20,209.20 600.00,208.80 600.80,209.20 601.60,210.40"/>
    </edge>
    <edge id=":n2_5" function="internal">
        <lane id=":n2_5_0" index="0" speed="6.51" length="9.03" shape="610.40,204.80 607.95,205.15 606.20,206.20 605.15,207.95 604.80,210.40"/>
    </edge>
    <edge id=":n2_6" function="internal">
        <lane id=":n2_6_0" index="0" speed="13.89" length="20.80" shape="610.40,204.80 589.60,204.80"/>
        <lane id=":n2_6_1" index="1" speed="13.89" length="20.80" shape="610.40,201.60 589.60,201.60"/>
    </edge>
    <edge id=":n2_8" function="internal">
        <lane id=":n2_8_0" index="0" speed="9.26" length="5.01" shape="610.40,201.60 605.44,200.89"/>
    </edge>
    <edge id=":n2_9" function="internal">
        <lane id=":n2_9_0" index="0" speed="3.65" length="1.44" shape="610.40,201.60 609.20,200.80"/>
    </edge>
    <edge id=":n2_22" function="internal">
        <lane id=":n2_22_0" index="0" speed="9.26" length="14.34" shape="605.44,200.89 605.15,200.85 601.40,198.60 599.15,194.85 598.40,189.60"/>
    </edge>
    <edge id=":n2_23" function="internal">
        <lane id=":n2_23_0" index="0" speed="3.65" length="3.23" shape="609.20,200.80 608.80,200.00 609.20,199.20 610.40,198.40"/>
    </edge>
    <edge id=":n2_10" function="internal">
        <lane id=":n2_10_0" index="0" speed="6.51" length="9.03" shape="604.80,189.60 605.15,192.05 606.20,193.80 607.95,194.85 610.40,195.20"/>
    </edge>
    <edge id=":n2_11" function="internal">
        <lane id=":n2_11_0" index="0" speed="13.89" length="20.80" shape="604.80,189.60 604.80,210.40"/>
        <lane id=":n2_11_1" index="1" speed="13.89" length="20.80" shape="601.60,189.60 601.60,210.40"/>
    </edge>
    <edge id=":n2_13" function="internal">
        <lane id=":n2_13_0" index="0" speed="9.26" length="5.01" shape="601.60,189.60 600.89,194.56"/>
    </edge>
    <edge id=":n2_14" function="internal">
        <lane id=":n2_14_0" index="0" speed="3.65" length="1.44" shape="601.60,189.60 600.80,190.80"/>
    </edge>
    <edge id=":n2_24" function="internal">
        <lane id=":n2_24_0" index="0" speed="9.26" length="14.34" shape="600.89,194.56 600.85,194.85 598.60,198.60 594.85,200.85 589.60,201.60"/>
    </edge>
    <edge id=":n2_25" function="internal">
        <lane id=":n2_25_0" index="0" speed="3.65" length="3.23" shape="600.80,190.80 600.00,191.20 599.20,190.80 598.40,189.60"/>
    </edge>
    <edge id=":n2_15" function="internal">
        <lane id=":n2_15_0" index="0" speed="6.51" length="9.03" shape="589.60,195.20 592.05,194.85 593.80,193.80 594.85,192.05 595.20,189.60"/>
    </edge>
    <edge id=":n2_16" function="internal">
        <lane id=":n2_16_0" index="0" speed="13.89" length="20.80" shape="589.60,195.20 610.40,195.20"/>
        <lane id=":n2_16_1" index="1" speed="13.89" length="20.80" shape="589.60,198.40 610.40,198.40"/>
    </edge>
    <edge id=":n2_18" function="internal">
        <lane id=":n2_18_0" index="0" speed="9.26" length="5.01" shape="589.60,198.40 594.56,199.11"/>
    </edge>
    <edge id=":n2_19" function="internal">
        <lane id=":n2_19_0" index="0" speed="3.65" length="1.44" shape="589.60,198.40 590.80,199.20"/>
    </edge>
    <edge id=":n2_26" function="internal">
        <lane id=":n2_26_0" index="0" speed="9.26" length="14.34" shape="594.56,199.11 594.85,199.15 598.60,201.40 600.85,205.15 601.60,210.40"/>
    </edge>
    <edge id=":n2_27" function="internal">
        <lane id=":n2_27_0" index="0" speed="3.65" length="3.23" shape="590.80,199.20 591.20,200.00 590.80,200.80 589.60,201.60"/>
    </edge>
    <edge id=":n3_0" function="internal">
        <lane id=":n3_0_0" index="0" speed="6.51" length="9.03" shape="195.20,410.40 194.85,407.95 193.80,406.20 192.05,405.15 189.60,404.80"/>
    </edge>
    <edge id=":n3_1" function="internal">
        <lane id=":n3_1_0" index="0" speed="13.89" length="20.80" shape="195.20,410.40 195.20,389.60"/>
        <lane id=":n3_1_1" index="1" speed="13.89" length="20.80" shape="198.40,410.40 198.40,389.60"/>
    </edge>
    <edge id=":n3_3" function="internal">
        <lane id=":n3_3_0" index="0" speed="9.26" length="5.01" shape="198.40,410.40 199.11,405.44"/>
    </edge>
    <edge id=":n3_4" function="internal">
        <lane id=":n3_4_0" index="0" speed="3.65" length="1.44" shape="198.40,410.40 199.20,409.20"/>
    </edge>
    <edge id=":n3_20" function="internal">
        <lane id=":n3_20_0" index="0" speed="9.26" length="14.34" shape="199.11,405.44 199.15,405.15 201.40,401.40 205.15,399.15 210.40,398.40"/>
    </edge>
    <edge id=":n3_21" function="internal">
        <lane id=":n3_21_0" index="0" speed="3.65" length="3.23" shape="199.20,409.20 200.00,408.80 200.80,409.20 201.60,410.40"/>
    </edge>
    <edge id=":n3_5" function="internal">
        <lane id=":n3_5_0" index="0" speed="6.51" length="9.03" shape="210.40,404.80 207.95,405.15 206.20,406.20 205.15,407.95 204.80,410.40"/>
    </edge>
    <edge id=":n3_6" function="internal">
        <lane id=":n3_6_0" index="0" speed="13.89" length="20.80" shape="210.40,404.80 189.60,404.80"/>
        <lane id=":n3_6_1" index="1" speed="13.89" length="20.80" shape="210.40,401.60 189.60,401.60"/>
    </edge>
    <edge id=":n3_8" function="internal">
        <lane id=":n3_8_0" index="0" speed="9.26" length="5.01" shape="210.40,401.60 205.44,400.89"/>
    </edge>
    <edge id=":n3_9" function="internal">
        <lane id=":n3_9_0" index="0" speed="3.65" length="1.44" shape="210.40,401.60 209.20,400.80"/>
    </edge>
    <edge id=":n3_22" function="internal">
        <lane id=":n3_22_0" index="0" speed="9.26" length="14.34" shape="205.44,400.89 205.15,400.85 201.40,398.60 199.15,394.85 198.40,389.60"/>
    </edge>
    <edge id=":n3_23" function="internal">
        <lane id=":n3_23_0" index="0" speed="3.65" length="3.23" shape="209.20,400.80 208.80,400.00 209.20,399.20 210.40,398.40"/>
    </edge>
    <edge id=":n3_10" function="internal">
        <lane id=":n3_10_0" index="0" speed="6.51" length="9.03" shape="204.80,389.60 205.15,392.05 206.20,393.80 207.95,394.85 210.40,395.20"/>
    </edge>
    <edge id=":n3_11" function="internal">
        <lane id=":n3_11_0" index="0" speed="13.89" length="20.80" shape="204.80,389.60 204.80,410.40"/>
        <lane id=":n3_11_1" index="1" speed="13.89" length="20.80" shape="201.60,389.60 201.60,410.40"/>
    </edge>
    <edge id=":n3_13" function="internal">
        <lane id=":n3_13_0" index="0" speed="9.26" length="5.01" shape="201.60,389.60 200.89,394.56"/>
    </edge>
    <edge id=":n3_14" function="internal">
        <lane id=":n3_14_0" index="0" speed="3.65" length="1.44" shape="201.60,389.60 200.80,390.80"/>
    </edge>
    <edge id=":n3_24" function="internal">
        <lane id=":n3_24_0" index="0" speed="9.26" length="14.34" shape="200.89,394.56 200.85,394.85 198.60,398.60 194.85,400.85 189.60,401.60"/>
    </edge>
    <edge id=":n3_25" function="internal">
        <lane id=":n3_25_0" index="0" speed="3.65" length="3.23" shape="200.80,390.80 200.00,391.20 199.20,390.80 198.40,389.60"/>
    </edge>
    <edge id=":n3_15" function="internal">
        <lane id=":n3_15_0" index="0" speed="6.51" length="9.03" shape="189.60,395.20 192.05,394.85 193.80,393.80 194.85,392.05 195.20,389.60"/>
    </edge>
    <edge id=":n3_16" function="internal">
        <lane id=":n3_16_0" index="0" speed="13.89" length="20.80" shape="189.60,395.20 210.40,395.20"/>
        <lane id=":n3_16_1" index="1" speed="13.89" length="20.80" shape="189.60,398.40 210.40,398.40"/>
    </edge>
    <edge id=":n3_18" function="internal">
        <lane id=":n3_18_0" index="0" speed="9.26" length="5.01" shape="189.60,398.40 194.56,399.11"/>
    </edge>
    <edge id=":n3_19" function="internal">
        <lane id=":n3_19_0" index="0" speed="3.65" length="1.44" shape="189.60,398.40 190.80,399.20"/>
    </edge>
    <edge id=":n3_26" function="internal">
        <lane id=":n3_26_0" index="0" speed="9.26" length="14.34" shape="194.56,399.11 194.85,399.15 198.60,401.40 200.85,405.15 201.60,410.40"/>
    </edge>
    <edge id=":n3_27" function="internal">
        <lane id=":n3_27_0" index="0" speed="3.65" length="3.23" shape="190.80,399.20 191.20,400.00 190.80,400.80 189.60,401.60"/>
    </edge>
    <edge id=":n4_0" function="internal">
        <lane id=":n4_0_0" index="0" speed="6.51" length="9.03" shape="395.20,410.40 394.85,407.95 393.80,406.20 392.05,405.15 389.60,404.80"/>
    </edge>
    <edge id=":n4_1" function="internal">
        <lane id=":n4_1_0" index="0" speed="13.89" length="20.80" shape="395.20,410.40 395.20,389.60"/>
        <lane id=":n4_1_1" index="1" speed="13.89" length="20.80" shape="398.40,410.40 398.40,389.60"/>
    </edge>
    <edge id=":n4_3" function="internal">
        <lane id=":n4_3_0" index="0" speed="9.26" length="5.01" shape="398.40,410.40 399.11,405.44"/>
    </edge>
    <edge id=":n4_4" function="internal">
        <lane id=":n4_4_0" index="0" speed="3.65" length="1.44" shape="398.40,410.40 399.20,409.20"/>
    </edge>
    <edge id=":n4_20" function="internal">
        <lane id=":n4_20_0" index="0" speed="9.26" length="14.34" shape="399.11,405.44 399.15,405.15 401.40,401.40 405.15,399.15 410.40,398.40"/>
    </edge>
    <edge id=":n4_21" function="internal">
        <lane id=":n4_21_0" index="0" speed="3.65" length="3.23" shape="399.20,409.20 400.00,408.80 400.80,409.20 401.60,410.40"/>
    </edge>
    <edge id=":n4_5" function="internal">
        <lane id=":n4_5_0" index="0" speed="6.51" length="9.03" shape="410.40,404.80 407.95,405.15 406.20,406.20 405.15,407.95 404.80,410.40"/>
    </edge>
    <edge id=":n4_6" function="internal">
        <lane id=":n4_6_0" index="0" speed="13.89" length="20.80" shape="410.40,404.80 389.60,404.80"/>
        <lane id=":n4_6_1" index="1" speed="13.89" length="20.80" shape="410.40,401.60 389.60,401.60"/>
    </edge>
    <edge id=":n4_8" function="internal">
        <lane id=":n4_8_0" index="0" speed="9.26" length="5.01" shape="410.40,401.60 405.44,400.89"/>
    </edge>
    <edge id=":n4_9" function="internal">
        <lane id=":n4_9_0" index="0" speed="3.65" length="1.44" shape="410.40,401.60 409.20,400.80"/>
    </edge>
    <edge id=":n4_22" function="internal">
        <lane id=":n4_22_0" index="0" speed="9.26" length="14.34" shape="405.44,400.89 405.15,400.85 401.40,398.60 399.15,394.85 398.40,389.60"/>
    </edge>
    <edge id=":n4_23" function="internal">
        <lane id=":n4_23_0" index="0" speed="3.65" length="3.23" shape="409.20,400.80 408.80,400.00 409.20,399.20 410.40,398.40"/>
    </edge>
    <edge id=":n4_10" function="internal">
        <lane id=":n4_10_0" index="0" speed="6.51" length="9.03" shape="404.80,389.60 405.15,392.05 406.20,393.80 407.95,394.85 410.40,395.20"/>
    </edge>
    <edge id=":n4_11" function="internal">
        <lane id=":n4_11_0" index="0" speed="13.89" length="20.80" shape="404.80,389.60 404.80,410.40"/>
        <lane id=":n4_11_1" index="1" speed="13.89" length="20.80" shape="401.60,389.60 401.60,410.40"/>
    </edge>
    <edge id=":n4_13" function="internal">
        <lane id=":n4_13_0" index="0" speed="9.26" length="5.01" shape="401.60,389.60 400.89,394.56"/>
    </edge>
    <edge id=":n4_14" function="internal">
        <lane id=":n4_14_0" index="0" speed="3.65" length="1.44" shape="401.60,389.60 400.80,390.80"/>
    </edge>
    <edge id=":n4_24" function="internal">
        <lane id=":n4_24_0" index="0" speed="9.26" length="14.34" shape="400.89,394.56 400.85,394.85 398.60,398.60 394.85,400.85 389.60,401.60"/>
    </edge>
    <edge id=":n4_25" function="internal">
        <lane id=":n4_25_0" index="0" speed="3.65" length="3.23" shape="400.80,390.80 400.00,391.20 399.20,390.80 398.40,389.60"/>
    </edge>
    <edge id=":n4_15" function="internal">
        <lane id=":n4_15_0" index="0" speed="6.51" length="9.03" shape="389.60,395.20 392.05,394.85 393.80,393.80 394.85,392.05 395.20,389.60"/>
    </edge>
    <edge id=":n4_16" function="internal">
        <lane id=":n4_16_0" index="0" speed="13.89" length="20.80" shape="389.60,395.20 410.40,395.20"/>
        <lane id=":n4_16_1" index="1" speed="13.89" length="20.80" shape="389.60,398.40 410.40,398.40"/>
    </edge>
    <edge id=":n4_18" function="internal">
        <lane id=":n4_18_0" index="0" speed="9.26" length="5.01" shape="389.60,398.40 394.56,399.11"/>
    </edge>
    <edge id=":n4_19" function="internal">
        <lane id=":n4_19_0" index="0" speed="3.65" length="1.44" shape="389.60,398.40 390.80,399.20"/>
    </edge>
    <edge id=":n4_26" function="internal">
        <lane id=":n4_26_0" index="0" speed="9.26" length="14.34" shape="394.56,399.11 394.85,399.15 398.60,401.40 400.85,405.15 401.60,410.40"/>
    </edge>
    <edge id=":n4_27" function="internal">
        <lane id=":n4_27_0" index="0" speed="3.65" length="3.23" shape="390.80,399.20 391.20,400.00 390.80,400.80 389.60,401.60"/>
    </edge>
    <edge id=":n5_0" function="internal">
        <lane id=":n5_0_0" index="0" speed="6.51" length="9.03" shape="595.20,410.40 594.85,407.95 593.80,406.20 592.05,405.15 589.60,404.80"/>
    </edge>
    <edge id=":n5_1" function="internal">
        <lane id=":n5_1_0" index="0" speed="13.89" length="20.80" shape="595.20,410.40 595.20,389.60"/>
        <lane id=":n5_1_1" index="1" speed="13.89" length="20.80" shape="598.40,410.40 598.40,389.60"/>
    </edge>
    <edge id=":n5_3" function="internal">
        <lane id=":n5_3_0" index="0" speed="9.26" length="5.01" shape="598.40,410.40 599.11,405.44"/>
    </edge>
    <edge id=":n5_4" function="internal">
        <lane id=":n5_4_0" index="0" speed="3.65" length="1.44" shape="598.40,410.40 599.20,409.20"/>
    </edge>
    <edge id=":n5_20" function="internal">
        <lane id=":n5_20_0" index="0" speed="9.26" length="14.34" shape="599.11,405.44 599.15,405.15 601.40,401.40 605.15,399.15 610.40,398.40"/>
    </edge>
    <edge id=":n5_21" function="internal">
        <lane id=":n5_21_0" index="0" speed="3.65" length="3.23" shape="599.20,409.20 600.00,408.80 600.80,409.20 601.60,410.40"/>
    </edge>
    <edge id=":n5_5" function="internal">
        <lane id=":n5_5_0" index="0" speed="6.51" length="9.03" shape="610.40,404.80 607.95,405.15 606.20,406.20 605.15,407.95 604.80,410.40"/>
    </edge>
    <edge id=":n5_6" function="internal">
        <lane id=":n5_6_0" index="0" speed="13.89" length="20.80" shape="610.40,404.80 589.60,404.80"/>
        <lane id=":n5_6_1" index="1" speed="13.89" length="20.80" shape="610.40,401.60 589.60,401.60"/>
    </edge>
    <edge id=":n5_8" function="internal">
        <lane id=":n5_8_0" index="0" speed="9.26" length="5.01" shape="610.40,401.60 605.44,400.89"/>
    </edge>
    <edge id=":n5_9" function="internal">
        <lane id=":n5_9_0" index="0" speed="3.65" length="1.44" shape="610.40,401.60 609.20,400.80"/>
    </edge>
    <edge id=":n5_22" function="internal">
        <lane id=":n5_22_0" index="0" speed="9.26" length="14.34" shape="605.44,400.89 605.15,400.85 601.40,398.60 599.15,394.85 598.40,389.60"/>
    </edge>
    <edge id=":n5_23" function="internal">
        <lane id=":n5_23_0" index="0" speed="3.65" length="3.23" shape="609.20,400.80 608.80,400.00 609.20,399.20 610.40,398.40"/>
    </edge>
    <edge id=":n5_10" function="internal">
        <lane id=":n5_10_0" index="0" speed="6.51" length="9.03" shape="604.80,389.60 605.15,392.05 606.20,393.80 607.95,394.85 610.40,395.20"/>
    </edge>
    <edge id=":n5_11" function="internal">
        <lane id=":n5_11_0" index="0" speed="13.89" length="20.80" shape="604.80,389.60 604.80,410.40"/>
        <lane id=":n5_11_1" index="1" speed="13.89" length="20.80" shape="601.60,389.60 601.60,410.40"/>
    </edge>
    <edge id=":n5_13" function="internal">
        <lane id=":n5_13_0" index="0" speed="9.26" length="5.01" shape="601.60,389.60 600.89,394.56"/>
    </edge>
    <edge id=":n5_14" function="internal">
        <lane id=":n5_14_0" index="0" speed="3.65" length="1.44" shape="601.60,389.60 600.80,390.80"/>
    </edge>
    <edge id=":n5_24" function="internal">
        <lane id=":n5_24_0" index="0" speed="9.26" length="14.34" shape="600.89,394.56 600.85,394.85 598.60,398.60 594.85,400.85 589.60,401.60"/>
    </edge>
    <edge id=":n5_25" function="internal">
        <lane id=":n5_25_0" index="0" speed="3.65" length="3.23" shape="600.80,390.80 600.00,391.20 599.20,390.80 598.40,389.60"/>
    </edge>
    <edge id=":n5_15" function="internal">
        <lane id=":n5_15_0" index="0" speed="6.51" length="9.03" shape="589.60,395.20 592.05,394.85 593.80,393.80 594.85,392.05 595.20,389.60"/>
    </edge>
    <edge id=":n5_16" function="internal">
        <lane id=":n5_16_0" index="0" speed="13.89" length="20.80" shape="589.60,395.20 610.40,395.20"/>
        <lane id=":n5_16_1" index="1" speed="13.89" length="20.80" shape="589.60,398.40 610.40,398.40"/>
    </edge>
    <edge id=":n5_18" function="internal">
        <lane id=":n5_18_0" index="0" speed="9.26" length="5.01" shape="589.60,398.40 594.56,399.11"/>
    </edge>
    <edge id=":n5_19" function="internal">
        <lane id=":n5_19_0" index="0" speed="3.65" length="1.44" shape="589.60,398.40 590.80,399.20"/>
    </edge>
    <edge id=":n5_26" function="internal">
        <lane id=":n5_26_0" index="0" speed="9.26" length="14.34" shape="594.56,399.11 594.85,399.15 598.60,401.40 600.85,405.15 601.60,410.40"/>
    </edge>
    <edge id=":n5_27" function="internal">
        <lane id=":n5_27_0" index="0" speed="3.65" length="3.23" shape="590.80,399.20 591.20,400.00 590.80,400.80 589.60,401.60"/>
    </edge>
    <edge id=":n6_0" function="internal">
        <lane id=":n6_0_0" index="0" speed="6.51" length="9.03" shape="195.20,610.40 194.85,607.95 193.80,606.20 192.05,605.15 189.60,604.80"/>
    </edge>
    <edge id=":n6_1" function="internal">
        <lane id=":n6_1_0" index="0" speed="13.89" length="20.80" shape="195.20,610.40 195.20,589.60"/>
        <lane id=":n6_1_1" index="1" speed="13.89" length="20.80" shape="198.40,610.40 198.40,589.60"/>
    </edge>
    <edge id=":n6_3" function="internal">
        <lane id=":n6_3_0" index="0" speed="9.26" length="5.01" shape="198.40,610.40 199.11,605.44"/>
    </edge>
    <edge id=":n6_4" function="internal">
        <lane id=":n6_4_0" index="0" speed="3.65" length="1.44" shape="198.40,610.40 199.20,609.20"/>
    </edge>
    <edge id=":n6_20" function="internal">
        <lane id=":n6_20_0" index="0" speed="9.26" length="14.34" shape="199.11,605.44 199.15,605.15 201.40,601.40 205.15,599.15 210.40,598.40"/>
    </edge>