<?xml version="1.0" encoding="UTF-8"?>

<!-- generated on 2025-10-08 17:12:30 by Eclipse SUMO netedit Version 1.24.0
<neteditConfiguration xmlns:xsi="http://www.w3.org/2001/XMLSchema-instance" xsi:noNamespaceSchemaLocation="http://sumo.dlr.de/xsd/neteditConfiguration.xsd">

    <input>
        <sumo-net-file value="C:\Users\P14s\OneDrive\Desktop\3x3\vn.net.xml"/>
    </input>

    <output>
        <output-file value="C:\Users\P14s\OneDrive\Desktop\3x3\vn.net.xml"/>
    </output>

    <processing>
        <geometry.min-radius.fix.railways value="false"/>
        <geometry.avoid-overlap value="false"/>
        <geometry.max-grade.fix value="false"/>
        <offset.disable-normalization value="true"/>
        <lefthand value="0"/>
    </processing>

    <junctions>
        <no-turnarounds value="true"/>
        <junctions.corner-detail value="5"/>
        <junctions.limit-turn-speed value="5.50"/>
        <rectangular-lane-cut value="0"/>
    </junctions>

    <pedestrian>
        <walkingareas value="0"/>
    </pedestrian>

</neteditConfiguration>
-->

<net version="1.20" junctionCornerDetail="5" limitTurnSpeed="5.50" avoidOverlap="0" xmlns:xsi="http://www.w3.org/2001/XMLSchema-instance" xsi:noNamespaceSchemaLocation="http://sumo.dlr.de/xsd/net_file.xsd">

    <location netOffset="200.00,200.00" convBoundary="0.00,0.00,800.00,800.00" origBoundary="-200.00,-200.00,600.00,600.00" projParameter="!"/>

    <edge id=":J1_0" function="internal">
        <lane id=":J1_0_0" index="0" allow="motorcycle" speed="6.43" length="8.87" width="3.00" shape="195.00,610.50 194.66,608.09 193.62,606.38 191.91,605.34 189.50,605.00"/>
    </edge>
    <edge id=":J1_1" function="internal">
        <lane id=":J1_1_0" index="0" allow="motorcycle" speed="10.00" length="21.00" width="3.00" shape="195.00,610.50 195.00,589.50"/>
        <lane id=":J1_1_1" index="1" disallow="truck trailer" speed="11.11" length="21.00" width="3.50" shape="198.25,610.50 198.25,589.50"/>
    </edge>
    <edge id=":J1_3" function="internal">
        <lane id=":J1_3_0" index="0" disallow="truck trailer" speed="9.37" length="5.41" width="3.50" shape="198.25,610.50 199.02,605.14"/>
    </edge>
    <edge id=":J1_4" function="internal">
        <lane id=":J1_4_0" index="0" disallow="truck trailer" speed="3.82" length="1.58" width="3.50" shape="198.25,610.50 199.12,609.19"/>
    </edge>
    <edge id=":J1_20" function="internal">
        <lane id=":J1_20_0" index="0" disallow="truck trailer" speed="9.37" length="14.34" width="3.50" shape="199.02,605.14 201.31,601.31 205.14,599.02 210.50,598.25"/>
    </edge>
    <edge id=":J1_21" function="internal">
        <lane id=":J1_21_0" index="0" disallow="truck trailer" speed="3.82" length="3.53" width="3.50" shape="199.12,609.19 200.00,608.75 200.88,609.19 201.75,610.50"/>
    </edge>
    <edge id=":J1_5" function="internal">
        <lane id=":J1_5_0" index="0" allow="motorcycle" speed="6.43" length="8.87" width="3.00" shape="210.50,605.00 208.09,605.34 206.38,606.38 205.34,608.09 205.00,610.50"/>
    </edge>
    <edge id=":J1_6" function="internal">
        <lane id=":J1_6_0" index="0" allow="motorcycle" speed="10.00" length="21.00" width="3.00" shape="210.50,605.00 189.50,605.00"/>
        <lane id=":J1_6_1" index="1" disallow="truck trailer" speed="11.11" length="21.00" width="3.50" shape="210.50,601.75 189.50,601.75"/>
    </edge>
    <edge id=":J1_8" function="internal">
        <lane id=":J1_8_0" index="0" disallow="truck trailer" speed="9.37" length="5.41" width="3.50" shape="210.50,601.75 205.14,600.98"/>
    </edge>
    <edge id=":J1_9" function="internal">
        <lane id=":J1_9_0" index="0" disallow="truck trailer" speed="3.82" length="1.58" width="3.50" shape="210.50,601.75 209.19,600.88"/>
    </edge>
    <edge id=":J1_22" function="internal">
        <lane id=":J1_22_0" index="0" disallow="truck trailer" speed="9.37" length="14.34" width="3.50" shape="205.14,600.98 201.31,598.69 199.02,594.86 198.25,589.50"/>
    </edge>
    <edge id=":J1_23" function="internal">
        <lane id=":J1_23_0" index="0" disallow="truck trailer" speed="3.82" length="3.53" width="3.50" shape="209.19,600.88 208.75,600.00 209.19,599.12 210.50,598.25"/>
    </edge>
    <edge id=":J1_10" function="internal">
        <lane id=":J1_10_0" index="0" allow="motorcycle" speed="6.43" length="8.87" width="3.00" shape="205.00,589.50 205.34,591.91 206.38,593.62 208.09,594.66 210.50,595.00"/>
    </edge>
    <edge id=":J1_11" function="internal">
        <lane id=":J1_11_0" index="0" allow="motorcycle" speed="10.00" length="21.00" width="3.00" shape="205.00,589.50 205.00,610.50"/>
        <lane id=":J1_11_1" index="1" disallow="truck trailer" speed="11.11" length="21.00" width="3.50" shape="201.75,589.50 201.75,610.50"/>
    </edge>
    <edge id=":J1_13" function="internal">
        <lane id=":J1_13_0" index="0" disallow="truck trailer" speed="9.37" length="5.41" width="3.50" shape="201.75,589.50 200.98,594.86"/>
    </edge>
    <edge id=":J1_14" function="internal">
        <lane id=":J1_14_0" index="0" disallow="truck trailer" speed="3.82" length="1.58" width="3.50" shape="201.75,589.50 200.88,590.81"/>
    </edge>
    <edge id=":J1_24" function="internal">
        <lane id=":J1_24_0" index="0" disallow="truck trailer" speed="9.37" length="14.34" width="3.50" shape="200.98,594.86 198.69,598.69 194.86,600.98 189.50,601.75"/>
    </edge>
    <edge id=":J1_25" function="internal">
        <lane id=":J1_25_0" index="0" disallow="truck trailer" speed="3.82" length="3.53" width="3.50" shape="200.88,590.81 200.00,591.25 199.12,590.81 198.25,589.50"/>
    </edge>
    <edge id=":J1_15" function="internal">
        <lane id=":J1_15_0" index="0" allow="motorcycle" speed="6.43" length="8.87" width="3.00" shape="189.50,595.00 191.91,594.66 193.62,593.62 194.66,591.91 195.00,589.50"/>
    </edge>
    <edge id=":J1_16" function="internal">
        <lane id=":J1_16_0" index="0" allow="motorcycle" speed="10.00" length="21.00" width="3.00" shape="189.50,595.00 210.50,595.00"/>
        <lane id=":J1_16_1" index="1" disallow="truck trailer" speed="11.11" length="21.00" width="3.50" shape="189.50,598.25 210.50,598.25"/>
    </edge>
    <edge id=":J1_18" function="internal">
        <lane id=":J1_18_0" index="0" disallow="truck trailer" speed="9.37" length="5.41" width="3.50" shape="189.50,598.25 194.86,599.02"/>
    </edge>
    <edge id=":J1_19" function="internal">
        <lane id=":J1_19_0" index="0" disallow="truck trailer" speed="3.82" length="1.58" width="3.50" shape="189.50,598.25 190.81,599.12"/>
    </edge>
    <edge id=":J1_26" function="internal">
        <lane id=":J1_26_0" index="0" disallow="truck trailer" speed="9.37" length="14.34" width="3.50" shape="194.86,599.02 198.69,601.31 200.98,605.14 201.75,610.50"/>
    </edge>
    <edge id=":J1_27" function="internal">
        <lane id=":J1_27_0" index="0" disallow="truck trailer" speed="3.82" length="3.53" width="3.50" shape="190.81,599.12 191.25,600.00 190.81,600.88 189.50,601.75"/>
    </edge>
    <edge id=":J2_0" function="internal">
        <lane id=":J2_0_0" index="0" allow="motorcycle" speed="6.55" length="9.07" width="3.00" shape="391.25,610.50 390.89,608.09 389.81,606.38 388.02,605.34 385.50,605.00"/>
    </edge>
    <edge id=":J2_1" function="internal">
        <lane id=":J2_1_0" index="0" allow="motorcycle" speed="12.50" length="21.00" width="3.50" shape="391.25,610.50 391.25,589.50"/>
        <lane id=":J2_1_1" index="1" disallow="trailer" speed="13.89" length="21.00" width="3.50" shape="394.75,610.50 394.75,589.50"/>
        <lane id=":J2_1_2" index="2" allow="passenger bus delivery truck" speed="16.67" length="21.00" width="3.50" shape="398.25,610.50 398.25,589.50"/>
    </edge>
    <edge id=":J2_4" function="internal">
        <lane id=":J2_4_0" index="0" allow="passenger bus delivery" speed="10.09" length="4.65" width="3.50" shape="398.25,610.50 399.12,605.93"/>
    </edge>
    <edge id=":J2_5" function="internal">
        <lane id=":J2_5_0" index="0" allow="passenger bus delivery truck" speed="3.82" length="1.58" width="3.50" shape="398.25,610.50 399.12,609.19"/>
    </edge>
    <edge id=":J2_21" function="internal">
        <lane id=":J2_21_0" index="0" allow="passenger bus delivery" speed="10.09" length="18.42" width="3.50" shape="399.12,605.93 399.27,605.14 402.31,601.31 407.39,599.02 414.50,598.25"/>
    </edge>
    <edge id=":J2_22" function="internal">
        <lane id=":J2_22_0" index="0" allow="passenger bus delivery truck" speed="3.82" length="3.53" width="3.50" shape="399.12,609.19 400.00,608.75 400.88,609.19 401.75,610.50"/>
    </edge>
    <edge id=":J2_6" function="internal">
        <lane id=":J2_6_0" index="0" allow="motorcycle" speed="6.50" length="9.07" width="3.50" shape="414.50,605.00 411.98,605.34 410.19,606.38 409.11,608.09 408.75,610.50"/>
    </edge>
    <edge id=":J2_7" function="internal">
        <lane id=":J2_7_0" index="0" allow="motorcycle" speed="10.00" length="29.00" width="3.00" shape="414.50,605.00 385.50,605.00"/>
        <lane id=":J2_7_1" index="1" disallow="truck trailer" speed="11.11" length="29.00" width="3.50" shape="414.50,601.75 385.50,601.75"/>
    </edge>
    <edge id=":J2_9" function="internal">
        <lane id=":J2_9_0" index="0" disallow="truck trailer" speed="3.82" length="1.58" width="3.50" shape="414.50,601.75 413.19,600.88"/>
    </edge>
    <edge id=":J2_23" function="internal">
        <lane id=":J2_23_0" index="0" disallow="truck trailer" speed="3.82" length="3.53" width="3.50" shape="413.19,600.88 412.75,600.00 413.19,599.12 414.50,598.25"/>
    </edge>
    <edge id=":J2_10" function="internal">
        <lane id=":J2_10_0" index="0" allow="motorcycle" speed="6.55" length="9.07" width="3.00" shape="408.75,589.50 409.11,591.91 410.19,593.62 411.98,594.66 414.50,595.00"/>
    </edge>
    <edge id=":J2_11" function="internal">
        <lane id=":J2_11_0" index="0" allow="motorcycle" speed="12.50" length="21.00" width="3.50" shape="408.75,589.50 408.75,610.50"/>
        <lane id=":J2_11_1" index="1" disallow="trailer" speed="13.89" length="21.00" width="3.50" shape="405.25,589.50 405.25,610.50"/>
        <lane id=":J2_11_2" index="2" allow="passenger bus delivery truck" speed="16.67" length="21.00" width="3.50" shape="401.75,589.50 401.75,610.50"/>
    </edge>
    <edge id=":J2_14" function="internal">
        <lane id=":J2_14_0" index="0" allow="passenger bus delivery" speed="10.09" length="4.65" width="3.50" shape="401.75,589.50 400.88,594.07"/>
    </edge>
    <edge id=":J2_15" function="internal">
        <lane id=":J2_15_0" index="0" allow="passenger bus delivery truck" speed="3.82" length="1.58" width="3.50" shape="401.75,589.50 400.88,590.81"/>
    </edge>
    <edge id=":J2_24" function="internal">
        <lane id=":J2_24_0" index="0" allow="passenger bus delivery" speed="10.09" length="18.42" width="3.50" shape="400.88,594.07 400.73,594.86 397.69,598.69 392.61,600.98 385.50,601.75"/>
    </edge>
    <edge id=":J2_25" function="internal">
        <lane id=":J2_25_0" index="0" allow="passenger bus delivery truck" speed="3.82" length="3.53" width="3.50" shape="400.88,590.81 400.00,591.25 399.12,590.81 398.25,589.50"/>
    </edge>
    <edge id=":J2_16" function="internal">
        <lane id=":J2_16_0" index="0" allow="motorcycle" speed="6.50" length="9.07" width="3.50" shape="385.50,595.00 388.02,594.66 389.81,593.62 390.89,591.91 391.25,589.50"/>
    </edge>
    <edge id=":J2_17" function="internal">
        <lane id=":J2_17_0" index="0" allow="motorcycle" speed="10.00" length="29.00" width="3.00" shape="385.50,595.00 414.50,595.00"/>
        <lane id=":J2_17_1" index="1" disallow="truck trailer" speed="11.11" length="29.00" width="3.50" shape="385.50,598.25 414.50,598.25"/>
    </edge>
    <edge id=":J2_19" function="internal">
        <lane id=":J2_19_0" index="0" allow="passenger bus delivery" speed="10.09" length="7.26" width="3.50" shape="385.50,598.25 392.61,599.02 392.71,599.06"/>
    </edge>
    <edge id=":J2_20" function="internal">
        <lane id=":J2_20_0" index="0" disallow="truck trailer" speed="3.82" length="1.58" width="3.50" shape="385.50,598.25 386.81,599.12"/>
    </edge>
    <edge id=":J2_26" function="internal">
        <lane id=":J2_26_0" index="0" allow="passenger bus delivery" speed="10.09" length="15.81" width="3.50" shape="392.71,599.06 397.69,601.31 400.73,605.14 401.75,610.50"/>
    </edge>
    <edge id=":J2_27" function="internal">
        <lane id=":J2_27_0" index="0" disallow="truck trailer" speed="3.82" length="3.53" width="3.50" shape="386.81,599.12 387.25,600.00 386.81,600.88 385.50,601.75"/>
    </edge>
    <edge id=":J3_0" function="internal">
        <lane id=":J3_0_0" index="0" allow="motorcycle" speed="6.43" length="8.87" width="3.00" shape="595.00,610.50 594.66,608.09 593.62,606.38 591.91,605.34 589.50,605.00"/>
    </edge>
    <edge id=":J3_1" function="internal">
        <lane id=":J3_1_0" index="0" allow="motorcycle" speed="10.00" length="21.00" width="3.00" shape="595.00,610.50 595.00,589.50"/>
        <lane id=":J3_1_1" index="1" disallow="truck trailer" speed="11.11" length="21.00" width="3.50" shape="598.25,610.50 598.25,589.50"/>
    </edge>
    <edge id=":J3_3" function="internal">
        <lane id=":J3_3_0" index="0" disallow="truck trailer" speed="9.37" length="5.41" width="3.50" shape="598.25,610.50 599.02,605.14"/>
    </edge>
    <edge id=":J3_4" function="internal">
        <lane id=":J3_4_0" index="0" disallow="truck trailer" speed="3.82" length="1.58" width="3.50" shape="598.25,610.50 599.12,609.19"/>
    </edge>
    <edge id=":J3_20" function="internal">
        <lane id=":J3_20_0" index="0" disallow="truck trailer" speed="9.37" length="14.34" width="3.50" shape="599.02,605.14 601.31,601.31 605.14,599.02 610.50,598.25"/>
    </edge>
    <edge id=":J3_21" function="internal">
        <lane id=":J3_21_0" index="0" disallow="truck trailer" speed="3.82" length="3.53" width="3.50" shape="599.12,609.19 600.00,608.75 600.88,609.19 601.75,610.50"/>
    </edge>
    <edge id=":J3_5" function="internal">
        <lane id=":J3_5_0" index="0" allow="motorcycle" speed="6.43" length="8.87" width="3.00" shape="610.50,605.00 608.09,605.34 606.38,606.38 605.34,608.09 605.00,610.50"/>
    </edge>
    <edge id=":J3_6" function="internal">
        <lane id=":J3_6_0" index="0" allow="motorcycle" speed="10.00" length="21.00" width="3.00" shape="610.50,605.00 589.50,605.00"/>
        <lane id=":J3_6_1" index="1" disallow="truck trailer" speed="11.11" length="21.00" width="3.50" shape="610.50,601.75 589.50,601.75"/>
    </edge>
    <edge id=":J3_8" function="internal">
        <lane id=":J3_8_0" index="0" disallow="truck trailer" speed="9.37" length="5.41" width="3.50" shape="610.50,601.75 605.14,600.98"/>
    </edge>
    <edge id=":J3_9" function="internal">
        <lane id=":J3_9_0" index="0" disallow="truck trailer" speed="3.82" length="1.58" width="3.50" shape="610.50,601.75 609.19,600.88"/>
    </edge>
    <edge id=":J3_22" function="internal">
        <lane id=":J3_22_0" index="0" disallow="truck trailer" speed="9.37" length="14.34" width="3.50" shape="605.14,600.98 601.31,598.69 599.02,594.86 598.25,589.50"/>
    </edge>
    <edge id=":J3_23" function="internal">
        <lane id=":J3_23_0" index="0" disallow="truck trailer" speed="3.82" length="3.53" width="3.50" shape="609.19,600.88 608.75,600.00 609.19,599.12 610.50,598.25"/>
    </edge>
    <edge id=":J3_10" function="internal">
        <lane id=":J3_10_0" index="0" allow="motorcycle" speed="6.43" length="8.87" width="3.00" shape="605.00,589.50 605.34,591.91 606.38,593.62 608.09,594.66 610.50,595.00"/>
    </edge>
    <edge id=":J3_11" function="internal">
        <lane id=":J3_11_0" index="0" allow="motorcycle" speed="10.00" length="21.00" width="3.00" shape="605.00,589.50 605.00,610.50"/>
        <lane id=":J3_11_1" index="1" disallow="truck trailer" speed="11.11" length="21.00" width="3.50" shape="601.75,589.50 601.75,610.50"/>
    </edge>
    <edge id=":J3_13" function="internal">
        <lane id=":J3_13_0" index="0" disallow="truck trailer" speed="9.37" length="5.41" width="3.50" shape="601.75,589.50 600.98,594.86"/>
    </edge>
    <edge id=":J3_14" function="internal">
        <lane id=":J3_14_0" index="0" disallow="truck trailer" speed="3.82" length="1.58" width="3.50" shape="601.75,589.50 600.88,590.81"/>
    </edge>
    <edge id=":J3_24" function="internal">
        <lane id=":J3_24_0" index="0" disallow="truck trailer" speed="9.37" length="14.34" width="3.50" shape="600.98,594.86 598.69,598.69 594.86,600.98 589.50,601.75"/>
    </edge>
    <edge id=":J3_25" function="internal">
        <lane id=":J3_25_0" index="0" disallow="truck trailer" speed="3.82" length="3.53" width="3.50" shape="600.88,590.81 600.00,591.25 599.12,590.81 598.25,589.50"/>
    </edge>
    <edge id=":J3_15" function="internal">
        <lane id=":J3_15_0" index="0" allow="motorcycle" speed="6.43" length="8.87" width="3.00" shape="589.50,595.00 591.91,594.66 593.62,593.62 594.66,591.91 595.00,589.50"/>
    </edge>
    <edge id=":J3_16" function="internal">
        <lane id=":J3_16_0" index="0" allow="motorcycle" speed="10.00" length="21.00" width="3.00" shape="589.50,595.00 610.50,595.00"/>
        <lane id=":J3_16_1" index="1" disallow="truck trailer" speed="11.11" length="21.00" width="3.50" shape="589.50,598.25 610.50,598.25"/>
    </edge>
    <edge id=":J3_18" function="internal">
        <lane id=":J3_18_0" index="0" disallow="truck trailer" speed="9.37" length="5.41" width="3.50" shape="589.50,598.25 594.86,599.02"/>
    </edge>
    <edge id=":J3_19" function="internal">
        <lane id=":J3_19_0" index="0" disallow="truck trailer" speed="3.82" length="1.58" width="3.50" shape="589.50,598.25 590.81,599.12"/>
    </edge>
    <edge id=":J3_26" function="internal">
        <lane id=":J3_26_0" index="0" disallow="truck trailer" speed="9.37" length="14.34" width="3.50" shape="594.86,599.02 598.69,601.31 600.98,605.14 601.75,610.50"/>
    </edge>
    <edge id=":J3_27" function="internal">
        <lane id=":J3_27_0" index="0" disallow="truck trailer" speed="3.82" length="3.53" width="3.50" shape="590.81,599.12 591.25,600.00 590.81,600.88 589.50,601.75"/>
    </edge>
    <edge id=":J4_0" function="internal">
        <lane id=":J4_0_0" index="0" allow="motorcycle" speed="6.50" length="9.07" width="3.50" shape="195.00,414.50 194.66,411.98 193.62,410.19 191.91,409.11 189.50,408.75"/>
    </edge>
    <edge id=":J4_1" function="internal">
        <lane id=":J4_1_0" index="0" allow="motorcycle" speed="10.00" length="29.00" width="3.00" shape="195.00,414.50 195.00,385.50"/>
        <lane id=":J4_1_1" index="1" disallow="truck trailer" speed="11.11" length="29.00" width="3.50" shape="198.25,414.50 198.25,385.50"/>
    </edge>
    <edge id=":J4_3" function="internal">
        <lane id=":J4_3_0" index="0" allow="passenger bus delivery" speed="10.09" length="7.26" width="3.50" shape="198.25,414.50 199.02,407.39 199.06,407.29"/>
    </edge>
    <edge id=":J4_4" function="internal">
        <lane id=":J4_4_0" index="0" disallow="truck trailer" speed="3.82" length="1.58" width="3.50" shape="198.25,414.50 199.12,413.19"/>
    </edge>
    <edge id=":J4_22" function="internal">
        <lane id=":J4_22_0" index="0" allow="passenger bus delivery" speed="10.09" length="15.81" width="3.50" shape="199.06,407.29 201.31,402.31 205.14,399.27 210.50,398.25"/>
    </edge>
    <edge id=":J4_23" function="internal">
        <lane id=":J4_23_0" index="0" disallow="truck trailer" speed="3.82" length="3.53" width="3.50" shape="199.12,413.19 200.00,412.75 200.88,413.19 201.75,414.50"/>
    </edge>
    <edge id=":J4_5" function="internal">
        <lane id=":J4_5_0" index="0" allow="motorcycle" speed="6.55" length="9.07" width="3.00" shape="210.50,408.75 208.09,409.11 206.38,410.19 205.34,411.98 205.00,414.50"/>
    </edge>
    <edge id=":J4_6" function="internal">
        <lane id=":J4_6_0" index="0" allow="motorcycle" speed="12.50" length="21.00" width="3.50" shape="210.50,408.75 189.50,408.75"/>
        <lane id=":J4_6_1" index="1" disallow="trailer" speed="13.89" length="21.00" width="3.50" shape="210.50,405.25 189.50,405.25"/>
        <lane id=":J4_6_2" index="2" allow="passenger bus delivery truck" speed="16.67" length="21.00" width="3.50" shape="210.50,401.75 189.50,401.75"/>
    </edge>
    <edge id=":J4_9" function="internal">
        <lane id=":J4_9_0" index="0" allow="passenger bus delivery" speed="10.09" length="4.65" width="3.50" shape="210.50,401.75 205.93,400.88"/>
    </edge>
    <edge id=":J4_10" function="internal">
        <lane id=":J4_10_0" index="0" allow="passenger bus delivery truck" speed="3.82" length="1.58" width="3.50" shape="210.50,401.75 209.19,400.88"/>
    </edge>
    <edge id=":J4_24" function="internal">
        <lane id=":J4_24_0" index="0" allow="passenger bus delivery" speed="10.09" length="18.42" width="3.50" shape="205.93,400.88 205.14,400.73 201.31,397.69 199.02,392.61 198.25,385.50"/>
    </edge>
    <edge id=":J4_25" function="internal">
        <lane id=":J4_25_0" index="0" allow="passenger bus delivery truck" speed="3.82" length="3.53" width="3.50" shape="209.19,400.88 208.75,400.00 209.19,399.12 210.50,398.25"/>
    </edge>
    <edge id=":J4_11" function="internal">
        <lane id=":J4_11_0" index="0" allow="motorcycle" speed="6.50" length="9.07" width="3.50" shape="205.00,385.50 205.34,388.02 206.38,389.81 208.09,390.89 210.50,391.25"/>
    </edge>
    <edge id=":J4_12" function="internal">
        <lane id=":J4_12_0" index="0" allow="motorcycle" speed="10.00" length="29.00" width="3.00" shape="205.00,385.50 205.00,414.50"/>
        <lane id=":J4_12_1" index="1" disallow="truck trailer" speed="11.11" length="29.00" width="3.50" shape="201.75,385.50 201.75,414.50"/>
    </edge>
    <edge id=":J4_14" function="internal">
        <lane id=":J4_14_0" index="0" allow="passenger bus delivery" speed="10.09" length="7.26" width="3.50" shape="201.75,385.50 200.98,392.61 200.94,392.71"/>
    </edge>
    <edge id=":J4_15" function="internal">
        <lane id=":J4_15_0" index="0" disallow="truck trailer" speed="3.82" length="1.58" width="3.50" shape="201.75,385.50 200.88,386.81"/>
    </edge>
    <edge id=":J4_26" function="internal">
        <lane id=":J4_26_0" index="0" allow="passenger bus delivery" speed="10.09" length="15.81" width="3.50" shape="200.94,392.71 198.69,397.69 194.86,400.73 189.50,401.75"/>
    </edge>
    <edge id=":J4_27" function="internal">
        <lane id=":J4_27_0" index="0" disallow="truck trailer" speed="3.82" length="3.53" width="3.50" shape="200.88,386.81 200.00,387.25 199.12,386.81 198.25,385.50"/>
    </edge>
    <edge id=":J4_16" function="internal">
        <lane id=":J4_16_0" index="0" allow="motorcycle" speed="6.55" length="9.07" width="3.00" shape="189.50,391.25 191.91,390.89 193.62,389.81 194.66,388.02 195.00,385.50"/>
    </edge>
    <edge id=":J4_17" function="internal">
        <lane id=":J4_17_0" index="0" allow="motorcycle" speed="12.50" length="21.00" width="3.50" shape="189.50,391.25 210.50,391.25"/>
        <lane id=":J4_17_1" index="1" disallow="trailer" speed="13.89" length="21.00" width="3.50" shape="189.50,394.75 210.50,394.75"/>
        <lane id=":J4_17_2" index="2" allow="passenger bus delivery truck" speed="16.67" length="21.00" width="3.50" shape="189.50,398.25 210.50,398.25"/>
    </edge>
    <edge id=":J4_20" function="internal">
        <lane id=":J4_20_0" index="0" allow="passenger bus delivery" speed="10.09" length="4.65" width="3.50" shape="189.50,398.25 194.07,399.12"/>
    </edge>
    <edge id=":J4_21" function="internal">
        <lane id=":J4_21_0" index="0" allow="passenger bus delivery truck" speed="3.82" length="1.58" width="3.50" shape="189.50,398.25 190.81,399.12"/>
    </edge>
    <edge id=":J4_28" function="internal">
        <lane id=":J4_28_0" index="0" allow="passenger bus delivery" speed="10.09" length="18.42" width="3.50" shape="194.07,399.12 194.86,399.27 198.69,402.31 200.98,407.39 201.75,414.50"/>
    </edge>
    <edge id=":J4_29" function="internal">
        <lane id=":J4_29_0" index="0" allow="passenger bus delivery truck" speed="3.82" length="3.53" width="3.50" shape="190.81,399.12 191.25,400.00 190.81,400.88 189.50,401.75"/>
    </edge>
    <edge id=":J5_0" function="internal">
        <lane id=":J5_0_0" index="0" allow="motorcycle" speed="10.88" length="27.01" width="3.50" shape="391.25,425.50 390.20,418.17 387.06,412.94 381.83,409.80 374.50,408.75"/>
    </edge>
    <edge id=":J5_1" function="internal">
        <lane id=":J5_1_0" index="0" allow="motorcycle" speed="12.50" length="51.00" width="3.50" shape="391.25,425.50 391.25,374.50"/>
        <lane id=":J5_1_1" index="1" disallow="trailer" speed="13.89" length="51.00" width="3.50" shape="394.75,425.50 394.75,374.50"/>
        <lane id=":J5_1_2" index="2" allow="passenger bus delivery truck" speed="16.67" length="51.00" width="3.50" shape="398.25,425.50 398.25,374.50"/>
    </edge>
    <edge id=":J5_4" function="internal">
        <lane id=":J5_4_0" index="0" allow="passenger bus delivery truck" speed="13.76" length="6.07" width="3.50" shape="398.25,425.50 399.11,419.49"/>
    </edge>
    <edge id=":J5_5" function="internal">
        <lane id=":J5_5_0" index="0" allow="passenger bus delivery truck" speed="3.82" length="1.58" width="3.50" shape="398.25,425.50 399.12,424.19"/>
    </edge>
    <edge id=":J5_24" function="internal">
        <lane id=":J5_24_0" index="0" allow="passenger bus delivery truck" speed="13.76" length="37.87" width="3.50" shape="399.11,419.49 399.95,413.58 405.06,405.06 413.58,399.95 425.50,398.25"/>
    </edge>
    <edge id=":J5_25" function="internal">
        <lane id=":J5_25_0" index="0" allow="passenger bus delivery truck" speed="3.82" length="3.53" width="3.50" shape="399.12,424.19 400.00,423.75 400.88,424.19 401.75,425.50"/>
    </edge>
    <edge id=":J5_6" function="internal">
        <lane id=":J5_6_0" index="0" allow="motorcycle" speed="10.88" length="27.01" width="3.50" shape="425.50,408.75 418.17,409.80 412.94,412.94 409.80,418.17 408.75,425.50"/>
    </edge>
    <edge id=":J5_7" function="internal">
        <lane id=":J5_7_0" index="0" allow="motorcycle" speed="12.50" length="51.00" width="3.50" shape="425.50,408.75 374.50,408.75"/>
        <lane id=":J5_7_1" index="1" disallow="trailer" speed="13.89" length="51.00" width="3.50" shape="425.50,405.25 374.50,405.25"/>
        <lane id=":J5_7_2" index="2" allow="passenger bus delivery truck" speed="16.67" length="51.00" width="3.50" shape="425.50,401.75 374.50,401.75"/>
    </edge>
    <edge id=":J5_10" function="internal">
        <lane id=":J5_10_0" index="0" allow="passenger bus delivery truck" speed="13.76" length="6.07" width="3.50" shape="425.50,401.75 419.49,400.89"/>
    </edge>
    <edge id=":J5_11" function="internal">
        <lane id=":J5_11_0" index="0" allow="passenger bus delivery truck" speed="3.82" length="1.58" width="3.50" shape="425.50,401.75 424.19,400.88"/>
    </edge>
    <edge id=":J5_26" function="internal">
        <lane id=":J5_26_0" index="0" allow="passenger bus delivery truck" speed="13.76" length="37.87" width="3.50" shape="419.49,400.89 413.58,400.05 405.06,394.94 399.95,386.42 398.25,374.50"/>
    </edge>
    <edge id=":J5_27" function="internal">
        <lane id=":J5_27_0" index="0" allow="passenger bus delivery truck" speed="3.82" length="3.53" width="3.50" shape="424.19,400.88 423.75,400.00 424.19,399.12 425.50,398.25"/>
    </edge>
    <edge id=":J5_12" function="internal">
        <lane id=":J5_12_0" index="0" allow="motorcycle" speed="10.88" length="27.01" width="3.50" shape="408.75,374.50 409.80,381.83 412.94,387.06 418.17,390.20 425.50,391.25"/>
    </edge>
    <edge id=":J5_13" function="internal">
        <lane id=":J5_13_0" index="0" allow="motorcycle" speed="12.50" length="51.00" width="3.50" shape="408.75,374.50 408.75,425.50"/>
        <lane id=":J5_13_1" index="1" disallow="trailer" speed="13.89" length="51.00" width="3.50" shape="405.25,374.50 405.25,425.50"/>
        <lane id=":J5_13_2" index="2" allow="passenger bus delivery truck" speed="16.67" length="51.00" width="3.50" shape="401.75,374.50 401.75,425.50"/>
    </edge>
    <edge id=":J5_16" function="internal">
        <lane id=":J5_16_0" index="0" allow="passenger bus delivery truck" speed="13.76" length="6.07" width="3.50" shape="401.75,374.50 400.89,380.51"/>
    </edge>
    <edge id=":J5_17" function="internal">
        <lane id=":J5_17_0" index="0" allow="passenger bus delivery truck" speed="3.82" length="1.58" width="3.50" shape="401.75,374.50 400.88,375.81"/>
    </edge>
    <edge id=":J5_28" function="internal">
        <lane id=":J5_28_0" index="0" allow="passenger bus delivery truck" speed="13.76" length="37.87" width="3.50" shape="400.89,380.51 400.05,386.42 394.94,394.94 386.42,400.05 374.50,401.75"/>
    </edge>
    <edge id=":J5_29" function="internal">
        <lane id=":J5_29_0" index="0" allow="passenger bus delivery truck" speed="3.82" length="3.53" width="3.50" shape="400.88,375.81 400.00,376.25 399.12,375.81 398.25,374.50"/>
    </edge>
    <edge id=":J5_18" function="internal">
        <lane id=":J5_18_0" index="0" allow="motorcycle" speed="10.88" length="27.01" width="3.50" shape="374.50,391.25 381.83,390.20 387.06,387.06 390.20,381.83 391.25,374.50"/>
    </edge>
    <edge id=":J5_19" function="internal">
        <lane id=":J5_19_0" index="0" allow="motorcycle" speed="12.50" length="51.00" width="3.50" shape="374.50,391.25 425.50,391.25"/>
        <lane id=":J5_19_1" index="1" disallow="trailer" speed="13.89" length="51.00" width="3.50" shape="374.50,394.75 425.50,394.75"/>
        <lane id=":J5_19_2" index="2" allow="passenger bus delivery truck" speed="16.67" length="51.00" width="3.50" shape="374.50,398.25 425.50,398.25"/>
    </edge>
    <edge id=":J5_22" function="internal">