<?xml version="1.0" ?>
<routes xmlns:xsi="http://www.w3.org/2001/XMLSchema-instance" xsi:noNamespaceSchemaLocation="http://sumo.dlr.de/xsd/routes_file.xsd">
    <trip id="car_ns_0" depart="0.00" from="N_out_7_to_J7" to="J8_to_N_out_8" type="car" departLane="best" departSpeed="max"/>
    <trip id="car_ns_1" depart="50.24" from="N_out_7_to_J7" to="J8_to_N_out_8" type="car" departLane="best" departSpeed="max"/>
    <trip id="car_ns_2" depart="98.21" from="N_out_1_to_J1" to="J1_to_N_out_1" type="car" departLane="best" departSpeed="max"/>
    <trip id="car_ns_3" depart="99.74" from="N_out_7_to_J7" to="J9_to_N_out_9" type="car" departLane="best" departSpeed="max"/>
    <trip id="car_ns_4" depart="102.40" from="N_out_3_to_J3" to="J8_to_N_out_8" type="car" departLane="best" departSpeed="max"/>
    <trip id="car_ns_5" depart="140.09" from="N_out_8_to_J8" to="J3_to_N_out_3" type="car" departLane="best" departSpeed="max"/>
    <trip id="car_ns_6" depart="185.46" from="N_out_8_to_J8" to="J3_to_N_out_3" type="car" departLane="best" departSpeed="max"/>
    <trip id="car_ns_7" depart="231.31" from="N_out_3_to_J3" to="J8_to_N_out_8" type="car" departLane="best" departSpeed="max"/>
    <trip id="car_ns_8" depart="271.38" from="N_out_9_to_J9" to="J1_to_N_out_1" type="car" departLane="best" departSpeed="max"/>
    <trip id="car_ns_9" depart="317.93" from="N_out_7_to_J7" to="J8_to_N_out_8" type="car" departLane="best" departSpeed="max"/>
    <trip id="car_ns_10" depart="320.01" from="N_out_3_to_J3" to="J1_to_N_out_1" type="car" departLane="best" departSpeed="max"/>
    <trip id="car_ns_11" depart="364.42" from="N_out_9_to_J9" to="J3_to_N_out_3" type="car" departLane="best" departSpeed="max"/>
    <trip id="car_ns_12" depart="397.91" from="N_out_7_to_J7" to="J8_to_N_out_8" type="car" departLane="best" departSpeed="max"/>
    <trip id="car_ns_13" depart="399.62" from="N_out_3_to_J3" to="J2_to_N_out_2" type="car" departLane="best" departSpeed="max"/>
    <trip id="car_ns_14" depart="403.15" from="N_out_3_to_J3" to="J3_to_N_out_3" type="car" departLane="best" departSpeed="max"/>
    <trip id="car_ns_15" depart="404.11" from="N_out_1_to_J1" to="J7_to_N_out_7" type="car" departLane="best" departSpeed="max"/>
    <trip id="car_ns_16" depart="440.76" from="N_out_3_to_J3" to="J9_to_N_out_9" type="car" departLane="best" departSpeed="max"/>
    <trip id="car_ns_17" depart="470.18" from="N_out_1_to_J1" to="J9_to_N_out_9" type="car" departLane="best" departSpeed="max"/>
    <trip id="car_ns_18" depart="509.57" from="N_out_3_to_J3" to="J8_to_N_out_8" type="car" departLane="best" departSpeed="max"/>
    <trip id="car_ns_19" depart="548.40" from="N_out_7_to_J7" to="J1_to_N_out_1" type="car" departLane="best" departSpeed="max"/>
    <trip id="car_ns_20" depart="583.80" from="N_out_1_to_J1" to="J1_to_N_out_1" type="car" departLane="best" departSpeed="max"/>
    <trip id="car_ns_21" depart="618.07" from="N_out_7_to_J7" to="J3_to_N_out_3" type="car" departLane="best" departSpeed="max"/>
    <trip id="car_ns_22" depart="620.90" from="N_out_1_to_J1" to="J8_to_N_out_8" type="car" departLane="best" departSpeed="max"/>
    <trip id="car_ns_23" depart="621.13" from="N_out_9_to_J9" to="J8_to_N_out_8" type="car" departLane="best" departSpeed="max"/>
    <trip id="car_ns_24" depart="624.17" from="N_out_9_to_J9" to="J7_to_N_out_7" type="car" departLane="best" departSpeed="max"/>
    <trip id="car_ns_25" depart="654.23" from="N_out_3_to_J3" to="J1_to_N_out_1" type="car" departLane="best" departSpeed="max"/>
    <trip id="car_ns_26" depart="682.25" from="N_out_7_to_J7" to="J9_to_N_out_9" type="car" departLane="best" departSpeed="max"/>
    <trip id="car_ns_27" depart="719.23" from="N_out_2_to_J2" to="J1_to_N_out_1" type="car" departLane="best" departSpeed="max"/>
    <trip id="car_ns_28" depart="720.50" from="N_out_8_to_J8" to="J3_to_N_out_3" type="car" departLane="best" departSpeed="max"/>
    <trip id="car_ns_29" depart="723.34" from="N_out_1_to_J1" to="J3_to_N_out_3" type="car" departLane="best" departSpeed="max"/>
    <trip id="car_ns_30" depart="753.81" from="N_out_7_to_J7" to="J1_to_N_out_1" type="car" departLane="best" departSpeed="max"/>
    <trip id="car_ns_31" depart="780.98" from="N_out_2_to_J2" to="J2_to_N_out_2" type="car" departLane="best" departSpeed="max"/>
    <trip id="car_ns_32" depart="819.78" from="N_out_2_to_J2" to="J7_to_N_out_7" type="car" departLane="best" departSpeed="max"/>
    <trip id="car_ns_33" depart="847.54" from="N_out_1_to_J1" to="J9_to_N_out_9" type="car" departLane="best" departSpeed="max"/>
    <trip id="car_ns_34" depart="877.49" from="N_out_3_to_J3" to="J9_to_N_out_9" type="car" departLane="best" departSpeed="max"/>
    <trip id="car_ns_35" depart="880.22" from="N_out_8_to_J8" to="J2_to_N_out_2" type="car" departLane="best" departSpeed="max"/>
    <trip id="car_ns_36" depart="906.34" from="N_out_1_to_J1" to="J1_to_N_out_1" type="car" departLane="best" departSpeed="max"/>
    <trip id="car_ns_37" depart="942.34" from="N_out_3_to_J3" to="J2_to_N_out_2" type="car" departLane="best" departSpeed="max"/>
    <trip id="car_ns_38" depart="970.60" from="N_out_2_to_J2" to="J8_to_N_out_8" type="car" departLane="best" departSpeed="max"/>
    <trip id="car_ns_39" depart="995.07" from="N_out_8_to_J8" to="J1_to_N_out_1" type="car" departLane="best" departSpeed="max"/>
    <trip id="car_ns_40" depart="1025.90" from="N_out_1_to_J1" to="J1_to_N_out_1" type="car" departLane="best" departSpeed="max"/>
    <trip id="car_ns_41" depart="1056.04" from="N_out_3_to_J3" to="J8_to_N_out_8" type="car" departLane="best" departSpeed="max"/>
    <trip id="car_ns_42" depart="1087.66" from="N_out_2_to_J2" to="J1_to_N_out_1" type="car" departLane="best" departSpeed="max"/>
    <trip id="car_ns_43" depart="1113.20" from="N_out_7_to_J7" to="J9_to_N_out_9" type="car" departLane="best" departSpeed="max"/>
    <trip id="car_ns_44" depart="1151.68" from="N_out_7_to_J7" to="J8_to_N_out_8" type="car" departLane="best" departSpeed="max"/>
    <trip id="car_ns_45" depart="1183.39" from="N_out_3_to_J3" to="J9_to_N_out_9" type="car" departLane="best" departSpeed="max"/>
    <trip id="car_ns_46" depart="1203.16" from="N_out_2_to_J2" to="J3_to_N_out_3" type="car" departLane="best" departSpeed="max"/>
    <trip id="car_ns_47" depart="1233.79" from="N_out_1_to_J1" to="J8_to_N_out_8" type="car" departLane="best" departSpeed="max"/>
    <trip id="car_ns_48" depart="1267.79" from="N_out_3_to_J3" to="J9_to_N_out_9" type="car" departLane="best" departSpeed="max"/>
    <trip id="car_ns_49" depart="1269.88" from="N_out_9_to_J9" to="J9_to_N_out_9" type="car" departLane="best" departSpeed="max"/>
    <trip id="car_ns_50" depart="1273.47" from="N_out_8_to_J8" to="J2_to_N_out_2" type="car" departLane="best" departSpeed="max"/>
    <trip id="car_ns_51" depart="1295.24" from="N_out_3_to_J3" to="J8_to_N_out_8" type="car" departLane="best" departSpeed="max"/>
    <trip id="car_ns_52" depart="1322.61" from="N_out_1_to_J1" to="J8_to_N_out_8" type="car" departLane="best" departSpeed="max"/>
    <trip id="car_ns_53" depart="1358.98" from="N_out_8_to_J8" to="J9_to_N_out_9" type="car" departLane="best" departSpeed="max"/>
    <trip id="car_ns_54" depart="1388.73" from="N_out_7_to_J7" to="J9_to_N_out_9" type="car" departLane="best" departSpeed="max"/>
    <trip id="car_ns_55" depart="1414.25" from="N_out_9_to_J9" to="J1_to_N_out_1" type="car" departLane="best" departSpeed="max"/>
    <trip id="car_ns_56" depart="1443.02" from="N_out_3_to_J3" to="J7_to_N_out_7" type="car" departLane="best" departSpeed="max"/>
    <trip id="car_ns_57" depart="1478.26" from="N_out_3_to_J3" to="J1_to_N_out_1" type="car" departLane="best" departSpeed="max"/>
    <trip id="car_ns_58" depart="1502.91" from="N_out_8_to_J8" to="J9_to_N_out_9" type="car" departLane="best" departSpeed="max"/>
    <trip id="car_ns_59" depart="1532.39" from="N_out_8_to_J8" to="J1_to_N_out_1" type="car" departLane="best" departSpeed="max"/>
    <trip id="car_ns_60" depart="1569.40" from="N_out_3_to_J3" to="J3_to_N_out_3" type="car" departLane="best" departSpeed="max"/>
    <trip id="car_ns_61" depart="1597.79" from="N_out_9_to_J9" to="J3_to_N_out_3" type="car" departLane="best" departSpeed="max"/>
    <trip id="car_ns_62" depart="1599.68" from="N_out_7_to_J7" to="J3_to_N_out_3" type="car" departLane="best" departSpeed="max"/>
    <trip id="car_ns_63" depart="1622.45" from="N_out_8_to_J8" to="J7_to_N_out_7" type="car" departLane="best" departSpeed="max"/>
    <trip id="car_ns_64" depart="1657.79" from="N_out_8_to_J8" to="J7_to_N_out_7" type="car" departLane="best" departSpeed="max"/>
    <trip id="car_ns_65" depart="1660.02" from="N_out_3_to_J3" to="J3_to_N_out_3" type="car" departLane="best" departSpeed="max"/>
    <trip id="car_ns_66" depart="1660.20" from="N_out_1_to_J1" to="J2_to_N_out_2" type="car" departLane="best" departSpeed="max"/>
    <trip id="car_ns_67" depart="1687.76" from="N_out_2_to_J2" to="J8_to_N_out_8" type="car" departLane="best" departSpeed="max"/>
    <trip id="car_ns_68" depart="1714.95" from="N_out_8_to_J8" to="J1_to_N_out_1" type="car" departLane="best" departSpeed="max"/>
    <trip id="car_ns_69" depart="1749.87" from="N_out_7_to_J7" to="J8_to_N_out_8" type="car" departLane="best" departSpeed="max"/>
    <trip id="car_ns_70" depart="1778.93" from="N_out_8_to_J8" to="J7_to_N_out_7" type="car" departLane="best" departSpeed="max"/>
    <trip id="car_ns_71" depart="1803.95" from="N_out_9_to_J9" to="J7_to_N_out_7" type="car" departLane="best" departSpeed="max"/>
    <trip id="car_ns_72" depart="1833.97" from="N_out_2_to_J2" to="J8_to_N_out_8" type="car" departLane="best" departSpeed="max"/>
    <trip id="car_ns_73" depart="1867.79" from="N_out_7_to_J7" to="J2_to_N_out_2" type="car" departLane="best" departSpeed="max"/>
    <trip id="car_ns_74" depart="1870.65" from="N_out_7_to_J7" to="J1_to_N_out_1" type="car" departLane="best" departSpeed="max"/>
    <trip id="car_ns_75" depart="1872.29" from="N_out_9_to_J9" to="J1_to_N_out_1" type="car" departLane="best" departSpeed="max"/>
    <trip id="car_ns_76" depart="1891.80" from="N_out_7_to_J7" to="J9_to_N_out_9" type="car" departLane="best" departSpeed="max"/>
    <trip id="car_ns_77" depart="1926.27" from="N_out_1_to_J1" to="J8_to_N_out_8" type="car" departLane="best" departSpeed="max"/>
    <trip id="car_ns_78" depart="1952.82" from="N_out_7_to_J7" to="J7_to_N_out_7" type="car" departLane="best" departSpeed="max"/>
    <trip id="car_ns_79" depart="1988.40" from="N_out_8_to_J8" to="J2_to_N_out_2" type="car" departLane="best" departSpeed="max"/>
    <trip id="car_ns_80" depart="2017.77" from="N_out_7_to_J7" to="J8_to_N_out_8" type="car" departLane="best" departSpeed="max"/>
    <trip id="car_ns_81" depart="2046.54" from="N_out_8_to_J8" to="J3_to_N_out_3" type="car" departLane="best" departSpeed="max"/>
    <trip id="car_ns_82" depart="2082.75" from="N_out_3_to_J3" to="J7_to_N_out_7" type="car" departLane="best" departSpeed="max"/>
    <trip id="car_ns_83" depart="2103.38" from="N_out_9_to_J9" to="J7_to_N_out_7" type="car" departLane="best" departSpeed="max"/>
    <trip id="car_ns_84" depart="2139.58" from="N_out_3_to_J3" to="J7_to_N_out_7" type="car" departLane="best" departSpeed="max"/>
    <trip id="car_ns_85" depart="2162.90" from="N_out_1_to_J1" to="J7_to_N_out_7" type="car" departLane="best" departSpeed="max"/>
    <trip id="car_ns_86" depart="2192.77" from="N_out_2_to_J2" to="J8_to_N_out_8" type="car" departLane="best" departSpeed="max"/>
    <trip id="car_ns_87" depart="2227.89" from="N_out_9_to_J9" to="J3_to_N_out_3" type="car" departLane="best" departSpeed="max"/>
    <trip id="car_ns_88" depart="2253.16" from="N_out_8_to_J8" to="J1_to_N_out_1" type="car" departLane="best" departSpeed="max"/>
    <trip id="car_ns_89" depart="2287.79" from="N_out_2_to_J2" to="J7_to_N_out_7" type="car" departLane="best" departSpeed="max"/>
    <trip id="car_ns_90" depart="2290.01" from="N_out_1_to_J1" to="J8_to_N_out_8" type="car" departLane="best" departSpeed="max"/>
    <trip id="car_ns_91" depart="2319.10" from="N_out_9_to_J9" to="J8_to_N_out_8" type="car" departLane="best" departSpeed="max"/>
    <trip id="car_ns_92" depart="2351.24" from="N_out_3_to_J3" to="J1_to_N_out_1" type="car" departLane="best" departSpeed="max"/>
    <trip id="car_ns_93" depart="2377.79" from="N_out_2_to_J2" to="J1_to_N_out_1" type="car" departLane="best" departSpeed="max"/>
    <trip id="car_ns_94" depart="2379.08" from="N_out_2_to_J2" to="J9_to_N_out_9" type="car" departLane="best" departSpeed="max"/>
    <trip id="car_ns_95" depart="2407.79" from="N_out_7_to_J7" to="J3_to_N_out_3" type="car" departLane="best" departSpeed="max"/>
    <trip id="car_ns_96" depart="2409.04" from="N_out_7_to_J7" to="J3_to_N_out_3" type="car" departLane="best" departSpeed="max"/>
    <trip id="car_ns_97" depart="2434.43" from="N_out_3_to_J3" to="J1_to_N_out_1" type="car" departLane="best" departSpeed="max"/>
    <trip id="car_ns_98" depart="2463.01" from="N_out_2_to_J2" to="J8_to_N_out_8" type="car" departLane="best" departSpeed="max"/>
    <trip id="car_ns_99" depart="2497.79" from="N_out_1_to_J1" to="J3_to_N_out_3" type="car" departLane="best" departSpeed="max"/>
    <trip id="car_ns_100" depart="2500.33" from="N_out_9_to_J9" to="J7_to_N_out_7" type="car" departLane="best" departSpeed="max"/>
    <trip id="car_ns_101" depart="2501.82" from="N_out_8_to_J8" to="J9_to_N_out_9" type="car" departLane="best" departSpeed="max"/>
    <trip id="car_ns_102" depart="2531.36" from="N_out_8_to_J8" to="J7_to_N_out_7" type="car" departLane="best" departSpeed="max"/>
    <trip id="car_ns_103" depart="2557.02" from="N_out_7_to_J7" to="J9_to_N_out_9" type="car" departLane="best" departSpeed="max"/>
    <trip id="car_ns_104" depart="2584.13" from="N_out_3_to_J3" to="J1_to_N_out_1" type="car" departLane="best" departSpeed="max"/>
    <trip id="car_ns_105" depart="2616.93" from="N_out_1_to_J1" to="J7_to_N_out_7" type="car" departLane="best" departSpeed="max"/>
    <trip id="car_ns_106" depart="2643.28" from="N_out_3_to_J3" to="J7_to_N_out_7" type="car" departLane="best" departSpeed="max"/>
    <trip id="car_ns_107" depart="2672.50" from="N_out_2_to_J2" to="J9_to_N_out_9" type="car" departLane="best" departSpeed="max"/>
    <trip id="car_ns_108" depart="2710.70" from="N_out_8_to_J8" to="J7_to_N_out_7" type="car" departLane="best" departSpeed="max"/>
    <trip id="car_ns_109" depart="2733.26" from="N_out_2_to_J2" to="J2_to_N_out_2" type="car" departLane="best" departSpeed="max"/>
    <trip id="car_ns_110" depart="2769.23" from="N_out_3_to_J3" to="J2_to_N_out_2" type="car" departLane="best" departSpeed="max"/>
    <trip id="car_ns_111" depart="2803.69" from="N_out_1_to_J1" to="J1_to_N_out_1" type="car" departLane="best" departSpeed="max"/>
    <trip id="car_ns_112" depart="2837.64" from="N_out_3_to_J3" to="J1_to_N_out_1" type="car" departLane="best" departSpeed="max"/>
    <trip id="car_ns_113" depart="2869.97" from="N_out_1_to_J1" to="J3_to_N_out_3" type="car" departLane="best" departSpeed="max"/>
    <trip id="car_ns_114" depart="2894.67" from="N_out_2_to_J2" to="J3_to_N_out_3" type="car" departLane="best" departSpeed="max"/>
    <trip id="car_ns_115" depart="2928.31" from="N_out_7_to_J7" to="J8_to_N_out_8" type="car" departLane="best" departSpeed="max"/>
    <trip id="car_ns_116" depart="2969.05" from="N_out_3_to_J3" to="J8_to_N_out_8" type="car" departLane="best" departSpeed="max"/>
    <trip id="car_ns_117" depart="2971.39" from="N_out_7_to_J7" to="J1_to_N_out_1" type="car" departLane="best" departSpeed="max"/>
    <trip id="car_ns_118" depart="2972.74" from="N_out_7_to_J7" to="J3_to_N_out_3" type="car" departLane="best" departSpeed="max"/>
    <trip id="car_ns_119" depart="2976.59" from="N_out_3_to_J3" to="J1_to_N_out_1" type="car" departLane="best" departSpeed="max"/>
</routes>
