<?xml version="1.0" ?>
<routes xmlns:xsi="http://www.w3.org/2001/XMLSchema-instance" xsi:noNamespaceSchemaLocation="http://sumo.dlr.de/xsd/routes_file.xsd">
    <trip id="delivery_0" depart="0.00" from="N_out_9_to_J9" to="J1_to_N_out_1" type="delivery" departLane="best" departSpeed="max"/>
    <trip id="delivery_1" depart="70.07" from="N_out_4_to_J4" to="J7_to_N_out_7" type="delivery" departLane="best" departSpeed="max"/>
    <trip id="delivery_2" depart="110.06" from="N_out_8_to_J8" to="J3_to_N_out_3e" type="delivery" departLane="best" departSpeed="max"/>
    <trip id="delivery_3" depart="166.70" from="N_out_3_to_J3" to="J1_to_N_out_1" type="delivery" departLane="best" departSpeed="max"/>
    <trip id="delivery_4" depart="218.75" from="N_out_4_to_J4" to="J6_to_N_out_6" type="delivery" departLane="best" departSpeed="max"/>
    <trip id="delivery_5" depart="277.24" from="N_out_8_to_J8" to="J9_to_N_out_9s" type="delivery" departLane="best" departSpeed="max"/>
    <trip id="delivery_6" depart="280.14" from="N_out_6_to_J6" to="J7_to_N_out_7" type="delivery" departLane="best" departSpeed="max"/>
    <trip id="delivery_7" depart="335.45" from="N_out_9_to_J9" to="J1_to_N_out_1w" type="delivery" departLane="best" departSpeed="max"/>
    <trip id="delivery_8" depart="375.32" from="N_out_8_to_J8" to="J6_to_N_out_6" type="delivery" departLane="best" departSpeed="max"/>
    <trip id="delivery_9" depart="378.19" from="N_out_7_to_J7" to="J4_to_N_out_4" type="delivery" departLane="best" departSpeed="max"/>
    <trip id="delivery_10" depart="419.57" from="N_out_1_to_J1" to="J9_to_N_out_9s" type="delivery" departLane="best" departSpeed="max"/>
    <trip id="delivery_11" depart="467.97" from="N_out_3e_to_J3" to="J4_to_N_out_4" type="delivery" departLane="best" departSpeed="max"/>
    <trip id="delivery_12" depart="470.12" from="N_out_7_to_J7" to="J7_to_N_out_7" type="delivery" departLane="best" departSpeed="max"/>
    <trip id="delivery_13" depart="472.76" from="N_out_3e_to_J3" to="J9_to_N_out_9" type="delivery" departLane="best" departSpeed="max"/>
    <trip id="delivery_14" depart="512.53" from="N_out_8_to_J8" to="J1_to_N_out_1w" type="delivery" departLane="best" departSpeed="max"/>
    <trip id="delivery_16" depart="514.57" from="N_out_7s_to_J7" to="J7_to_N_out_7s" type="delivery" departLane="best" departSpeed="max"/>
    <trip id="delivery_15" depart="515.09" from="N_out_3e_to_J3" to="J8_to_N_out_8" type="delivery" departLane="best" departSpeed="max"/>
    <trip id="delivery_17" depart="552.90" from="N_out_7_to_J7" to="J3_to_N_out_3" type="delivery" departLane="best" departSpeed="max"/>
    <trip id="delivery_18" depart="598.01" from="N_out_7_to_J7" to="J4_to_N_out_4" type="delivery" departLane="best" departSpeed="max"/>
    <trip id="delivery_19" depart="640.08" from="N_out_7_to_J7" to="J7_to_N_out_7" type="delivery" departLane="best" departSpeed="max"/>
    <trip id="delivery_20" depart="641.53" from="N_out_8_to_J8" to="J2_to_N_out_2" type="delivery" departLane="best" departSpeed="max"/>
    <trip id="delivery_21" depart="642.74" from="N_out_9s_to_J9" to="J9_to_N_out_9s" type="delivery" departLane="best" departSpeed="max"/>
    <trip id="delivery_22" depart="680.79" from="N_out_3_to_J3" to="J7_to_N_out_7s" type="delivery" departLane="best" departSpeed="max"/>
    <trip id="delivery_23" depart="682.94" from="N_out_8_to_J8" to="J7_to_N_out_7" type="delivery" departLane="best" departSpeed="max"/>
    <trip id="delivery_24" depart="686.24" from="N_out_2_to_J2" to="J1_to_N_out_1" type="delivery" departLane="best" departSpeed="max"/>
    <trip id="delivery_25" depart="720.67" from="N_out_9_to_J9" to="J6_to_N_out_6" type="delivery" departLane="best" departSpeed="max"/>
    <trip id="delivery_26" depart="723.04" from="N_out_7s_to_J7" to="J1_to_N_out_1w" type="delivery" departLane="best" departSpeed="max"/>
    <trip id="delivery_27" depart="762.06" from="N_out_7_to_J7" to="J7_to_N_out_7" type="delivery" departLane="best" departSpeed="max"/>
    <trip id="delivery_28" depart="803.32" from="N_out_3e_to_J3" to="J7_to_N_out_7" type="delivery" departLane="best" departSpeed="max"/>
    <trip id="delivery_29" depart="829.75" from="N_out_9s_to_J9" to="J9_to_N_out_9" type="delivery" departLane="best" departSpeed="max"/>
    <trip id="delivery_30" depart="866.71" from="N_out_8_to_J8" to="J2_to_N_out_2" type="delivery" departLane="best" departSpeed="max"/>
    <trip id="delivery_31" depart="914.47" from="N_out_7s_to_J7" to="J6_to_N_out_6" type="delivery" departLane="best" departSpeed="max"/>
    <trip id="delivery_32" depart="945.93" from="N_out_6_to_J6" to="J4_to_N_out_4" type="delivery" departLane="best" departSpeed="max"/>
    <trip id="delivery_33" depart="984.97" from="N_out_1_to_J1" to="J3_to_N_out_3" type="delivery" departLane="best" departSpeed="max"/>
    <trip id="delivery_34" depart="1020.15" from="N_out_2_to_J2" to="J1_to_N_out_1w" type="delivery" departLane="best" departSpeed="max"/>
    <trip id="delivery_35" depart="1047.98" from="N_out_6_to_J6" to="J3_to_N_out_3e" type="delivery" departLane="best" departSpeed="max"/>
    <trip id="delivery_36" depart="1089.38" from="N_out_7_to_J7" to="J3_to_N_out_3e" type="delivery" departLane="best" departSpeed="max"/>
    <trip id="delivery_37" depart="1090.65" from="N_out_1w_to_J1" to="J1_to_N_out_1w" type="delivery" departLane="best" departSpeed="max"/>
    <trip id="delivery_38" depart="1125.38" from="N_out_1_to_J1" to="J8_to_N_out_8" type="delivery" departLane="best" departSpeed="max"/>
    <trip id="delivery_39" depart="1126.47" from="N_out_7_to_J7" to="J2_to_N_out_2" type="delivery" departLane="best" departSpeed="max"/>
    <trip id="delivery_40" depart="1159.79" from="N_out_3_to_J3" to="J6_to_N_out_6" type="delivery" departLane="best" departSpeed="max"/>
    <trip id="delivery_41" depart="1199.24" from="N_out_9s_to_J9" to="J9_to_N_out_9" type="delivery" departLane="best" departSpeed="max"/>
    <trip id="delivery_42" depart="1228.01" from="N_out_3e_to_J3" to="J3_to_N_out_3e" type="delivery" departLane="best" departSpeed="max"/>
    <trip id="delivery_43" depart="1269.92" from="N_out_3_to_J3" to="J7_to_N_out_7" type="delivery" departLane="best" departSpeed="max"/>
    <trip id="delivery_44" depart="1302.93" from="N_out_1_to_J1" to="J3_to_N_out_3" type="delivery" departLane="best" departSpeed="max"/>
    <trip id="delivery_45" depart="1338.39" from="N_out_4_to_J4" to="J9_to_N_out_9s" type="delivery" departLane="best" departSpeed="max"/>
    <trip id="delivery_46" depart="1377.38" from="N_out_7_to_J7" to="J4_to_N_out_4" type="delivery" departLane="best" departSpeed="max"/>
    <trip id="delivery_47" depart="1378.62" from="N_out_6_to_J6" to="J9_to_N_out_9s" type="delivery" departLane="best" departSpeed="max"/>
    <trip id="delivery_48" depart="1380.99" from="N_out_3e_to_J3" to="J1_to_N_out_1w" type="delivery" departLane="best" departSpeed="max"/>
    <trip id="delivery_49" depart="1412.01" from="N_out_7s_to_J7" to="J1_to_N_out_1" type="delivery" departLane="best" departSpeed="max"/>
    <trip id="delivery_50" depart="1455.82" from="N_out_9s_to_J9" to="J9_to_N_out_9" type="delivery" departLane="best" departSpeed="max"/>
    <trip id="delivery_51" depart="1483.11" from="N_out_9s_to_J9" to="J1_to_N_out_1" type="delivery" departLane="best" departSpeed="max"/>
    <trip id="delivery_52" depart="1516.95" from="N_out_6_to_J6" to="J6_to_N_out_6" type="delivery" departLane="best" departSpeed="max"/>
    <trip id="delivery_53" depart="1552.27" from="N_out_2_to_J2" to="J1_to_N_out_1w" type="delivery" departLane="best" departSpeed="max"/>
    <trip id="delivery_54" depart="1586.94" from="N_out_6_to_J6" to="J3_to_N_out_3e" type="delivery" departLane="best" departSpeed="max"/>
    <trip id="delivery_55" depart="1629.38" from="N_out_3e_to_J3" to="J6_to_N_out_6" type="delivery" departLane="best" departSpeed="max"/>
    <trip id="delivery_56" depart="1631.28" from="N_out_9_to_J9" to="J7_to_N_out_7" type="delivery" departLane="best" departSpeed="max"/>
    <trip id="delivery_57" depart="1665.38" from="N_out_8_to_J8" to="J4_to_N_out_4" type="delivery" departLane="best" departSpeed="max"/>
    <trip id="delivery_58" depart="1666.54" from="N_out_3_to_J3" to="J9_to_N_out_9" type="delivery" departLane="best" departSpeed="max"/>
    <trip id="delivery_59" depart="1701.38" from="N_out_7s_to_J7" to="J3_to_N_out_3" type="delivery" departLane="best" departSpeed="max"/>
    <trip id="delivery_60" depart="1702.53" from="N_out_3_to_J3" to="J4_to_N_out_4" type="delivery" departLane="best" departSpeed="max"/>
    <trip id="delivery_61" depart="1704.09" from="N_out_4_to_J4" to="J7_to_N_out_7" type="delivery" departLane="best" departSpeed="max"/>
    <trip id="delivery_62" depart="1736.00" from="N_out_3_to_J3" to="J1_to_N_out_1" type="delivery" departLane="best" departSpeed="max"/>
    <trip id="delivery_63" depart="1771.33" from="N_out_7s_to_J7" to="J9_to_N_out_9" type="delivery" departLane="best" departSpeed="max"/>
    <trip id="delivery_64" depart="1814.61" from="N_out_9s_to_J9" to="J8_to_N_out_8" type="delivery" departLane="best" departSpeed="max"/>
    <trip id="delivery_65" depart="1839.42" from="N_out_4_to_J4" to="J7_to_N_out_7" type="delivery" departLane="best" departSpeed="max"/>
    <trip id="delivery_66" depart="1886.43" from="N_out_8_to_J8" to="J3_to_N_out_3" type="delivery" departLane="best" departSpeed="max"/>
    <trip id="delivery_67" depart="1921.94" from="N_out_3e_to_J3" to="J9_to_N_out_9" type="delivery" departLane="best" departSpeed="max"/>
    <trip id="delivery_68" depart="1954.29" from="N_out_2_to_J2" to="J7_to_N_out_7s" type="delivery" departLane="best" departSpeed="max"/>
    <trip id="delivery_69" depart="1995.00" from="N_out_3_to_J3" to="J8_to_N_out_8" type="delivery" departLane="best" departSpeed="max"/>
    <trip id="delivery_70" depart="2024.79" from="N_out_1_to_J1" to="J3_to_N_out_3e" type="delivery" departLane="best" departSpeed="max"/>
    <trip id="delivery_71" depart="2068.42" from="N_out_6_to_J6" to="J7_to_N_out_7s" type="delivery" departLane="best" departSpeed="max"/>
    <trip id="delivery_72" depart="2100.54" from="N_out_1_to_J1" to="J9_to_N_out_9s" type="delivery" departLane="best" departSpeed="max"/>
    <trip id="delivery_73" depart="2133.38" from="N_out_8_to_J8" to="J3_to_N_out_3" type="delivery" departLane="best" departSpeed="max"/>
    <trip id="delivery_74" depart="2135.69" from="N_out_3_to_J3" to="J7_to_N_out_7s" type="delivery" departLane="best" departSpeed="max"/>
    <trip id="delivery_75" depart="2138.76" from="N_out_3e_to_J3" to="J7_to_N_out_7" type="delivery" departLane="best" departSpeed="max"/>
    <trip id="delivery_76" depart="2169.38" from="N_out_7s_to_J7" to="J7_to_N_out_7s" type="delivery" departLane="best" departSpeed="max"/>
    <trip id="delivery_77" depart="2172.11" from="N_out_9s_to_J9" to="J9_to_N_out_9" type="delivery" departLane="best" departSpeed="max"/>
    <trip id="delivery_78" depart="2202.43" from="N_out_9s_to_J9" to="J4_to_N_out_4" type="delivery" departLane="best" departSpeed="max"/>
    <trip id="delivery_79" depart="2236.70" from="N_out_7s_to_J7" to="J7_to_N_out_7" type="delivery" departLane="best" departSpeed="max"/>
    <trip id="delivery_80" depart="2277.38" from="N_out_3_to_J3" to="J3_to_N_out_3" type="delivery" departLane="best" departSpeed="max"/>
    <trip id="delivery_81" depart="2278.40" from="N_out_7s_to_J7" to="J1_to_N_out_1" type="delivery" departLane="best" departSpeed="max"/>
    <trip id="delivery_82" depart="2319.74" from="N_out_7_to_J7" to="J4_to_N_out_4" type="delivery" departLane="best" departSpeed="max"/>
    <trip id="delivery_83" depart="2352.72" from="N_out_7s_to_J7" to="J9_to_N_out_9s" type="delivery" departLane="best" departSpeed="max"/>
    <trip id="delivery_84" depart="2384.75" from="N_out_7_to_J7" to="J3_to_N_out_3" type="delivery" departLane="best" departSpeed="max"/>
    <trip id="delivery_85" depart="2421.38" from="N_out_2_to_J2" to="J9_to_N_out_9s" type="delivery" departLane="best" departSpeed="max"/>
    <trip id="delivery_87" depart="2424.24" from="N_out_1_to_J1" to="J4_to_N_out_4" type="delivery" departLane="best" departSpeed="max"/>
    <trip id="delivery_86" depart="2424.31" from="N_out_1w_to_J1" to="J9_to_N_out_9" type="delivery" departLane="best" departSpeed="max"/>
    <trip id="delivery_88" depart="2451.17" from="N_out_2_to_J2" to="J2_to_N_out_2" type="delivery" departLane="best" departSpeed="max"/>
    <trip id="delivery_89" depart="2486.59" from="N_out_7s_to_J7" to="J3_to_N_out_3e" type="delivery" departLane="best" departSpeed="max"/>
    <trip id="delivery_90" depart="2524.73" from="N_out_1_to_J1" to="J3_to_N_out_3e" type="delivery" departLane="best" departSpeed="max"/>
    <trip id="delivery_91" depart="2558.58" from="N_out_7s_to_J7" to="J3_to_N_out_3e" type="delivery" departLane="best" departSpeed="max"/>
    <trip id="delivery_92" depart="2601.25" from="N_out_3e_to_J3" to="J7_to_N_out_7" type="delivery" departLane="best" departSpeed="max"/>
    <trip id="delivery_93" depart="2637.38" from="N_out_3_to_J3" to="J9_to_N_out_9" type="delivery" departLane="best" departSpeed="max"/>
    <trip id="delivery_94" depart="2640.23" from="N_out_3_to_J3" to="J7_to_N_out_7" type="delivery" departLane="best" departSpeed="max"/>
    <trip id="delivery_95" depart="2673.38" from="N_out_1_to_J1" to="J2_to_N_out_2" type="delivery" departLane="best" departSpeed="max"/>
    <trip id="delivery_96" depart="2675.31" from="N_out_3e_to_J3" to="J9_to_N_out_9s" type="delivery" departLane="best" departSpeed="max"/>
    <trip id="delivery_97" depart="2675.86" from="N_out_2_to_J2" to="J9_to_N_out_9s" type="delivery" departLane="best" departSpeed="max"/>
    <trip id="delivery_98" depart="2706.67" from="N_out_2_to_J2" to="J6_to_N_out_6" type="delivery" departLane="best" departSpeed="max"/>
    <trip id="delivery_99" depart="2745.61" from="N_out_8_to_J8" to="J9_to_N_out_9" type="delivery" departLane="best" departSpeed="max"/>
</routes>
