<?xml version="1.0" ?>
<routes xmlns:xsi="http://www.w3.org/2001/XMLSchema-instance" xsi:noNamespaceSchemaLocation="http://sumo.dlr.de/xsd/routes_file.xsd">
    <trip id="bus_0" depart="0.00" from="N_out_7s_to_J7" to="J8_to_N_out_8" type="bus" departLane="best" departSpeed="max"/>
    <trip id="bus_1" depart="2.11" from="N_out_6_to_J6" to="J3_to_N_out_3" type="bus" departLane="best" departSpeed="max"/>
    <trip id="bus_2" depart="2.18" from="N_out_9_to_J9" to="J4_to_N_out_4" type="bus" departLane="best" departSpeed="max"/>
    <trip id="bus_3" depart="75.00" from="N_out_3_to_J3" to="J9_to_N_out_9" type="bus" departLane="best" departSpeed="max"/>
    <trip id="bus_4" depart="77.71" from="N_out_7_to_J7" to="J4_to_N_out_4" type="bus" departLane="best" departSpeed="max"/>
    <trip id="bus_5" depart="143.35" from="N_out_4_to_J4" to="J7_to_N_out_7" type="bus" departLane="best" departSpeed="max"/>
    <trip id="bus_6" depart="213.73" from="N_out_7s_to_J7" to="J8_to_N_out_8" type="bus" departLane="best" departSpeed="max"/>
    <trip id="bus_7" depart="215.45" from="N_out_8_to_J8" to="J7_to_N_out_7s" type="bus" departLane="best" departSpeed="max"/>
    <trip id="bus_8" depart="219.58" from="N_out_7_to_J7" to="J2_to_N_out_2" type="bus" departLane="best" departSpeed="max"/>
    <trip id="bus_9" depart="278.48" from="N_out_7_to_J7" to="J9_to_N_out_9" type="bus" departLane="best" departSpeed="max"/>
    <trip id="bus_10" depart="280.78" from="N_out_3e_to_J3" to="J2_to_N_out_2" type="bus" departLane="best" departSpeed="max"/>
    <trip id="bus_11" depart="281.50" from="N_out_7_to_J7" to="J1_to_N_out_1" type="bus" departLane="best" departSpeed="max"/>
    <trip id="bus_12" depart="340.36" from="N_out_4_to_J4" to="J1_to_N_out_1w" type="bus" departLane="best" departSpeed="max"/>
    <trip id="bus_13" depart="400.54" from="N_out_2_to_J2" to="J7_to_N_out_7" type="bus" departLane="best" departSpeed="max"/>
    <trip id="bus_14" depart="402.95" from="N_out_1_to_J1" to="J4_to_N_out_4" type="bus" departLane="best" departSpeed="max"/>
    <trip id="bus_15" depart="406.41" from="N_out_9_to_J9" to="J1_to_N_out_1" type="bus" departLane="best" departSpeed="max"/>
    <trip id="bus_16" depart="458.38" from="N_out_3e_to_J3" to="J9_to_N_out_9" type="bus" departLane="best" departSpeed="max"/>
    <trip id="bus_17" depart="461.27" from="N_out_1w_to_J1" to="J3_to_N_out_3e" type="bus" departLane="best" departSpeed="max"/>
    <trip id="bus_18" depart="514.37" from="N_out_6_to_J6" to="J7_to_N_out_7s" type="bus" departLane="best" departSpeed="max"/>
    <trip id="bus_19" depart="517.08" from="N_out_3e_to_J3" to="J7_to_N_out_7" type="bus" departLane="best" departSpeed="max"/>
    <trip id="bus_20" depart="517.14" from="N_out_1_to_J1" to="J4_to_N_out_4" type="bus" departLane="best" departSpeed="max"/>
    <trip id="bus_21" depart="561.47" from="N_out_2_to_J2" to="J1_to_N_out_1w" type="bus" departLane="best" departSpeed="max"/>
    <trip id="bus_22" depart="613.29" from="N_out_1_to_J1" to="J7_to_N_out_7" type="bus" departLane="best" departSpeed="max"/>
    <trip id="bus_23" depart="675.83" from="N_out_8_to_J8" to="J2_to_N_out_2" type="bus" departLane="best" departSpeed="max"/>
    <trip id="bus_24" depart="722.86" from="N_out_7s_to_J7" to="J1_to_N_out_1" type="bus" departLane="best" departSpeed="max"/>
    <trip id="bus_25" depart="724.99" from="N_out_6_to_J6" to="J3_to_N_out_3" type="bus" departLane="best" departSpeed="max"/>
    <trip id="bus_26" depart="771.71" from="N_out_7_to_J7" to="J9_to_N_out_9" type="bus" departLane="best" departSpeed="max"/>
    <trip id="bus_27" depart="774.15" from="N_out_9s_to_J9" to="J2_to_N_out_2" type="bus" departLane="best" departSpeed="max"/>
    <trip id="bus_28" depart="774.76" from="N_out_7_to_J7" to="J7_to_N_out_7s" type="bus" departLane="best" departSpeed="max"/>
    <trip id="bus_29" depart="819.43" from="N_out_8_to_J8" to="J3_to_N_out_3" type="bus" departLane="best" departSpeed="max"/>
    <trip id="bus_30" depart="822.38" from="N_out_9_to_J9" to="J9_to_N_out_9s" type="bus" departLane="best" departSpeed="max"/>
    <trip id="bus_31" depart="823.25" from="N_out_3e_to_J3" to="J8_to_N_out_8" type="bus" departLane="best" departSpeed="max"/>
    <trip id="bus_32" depart="873.54" from="N_out_7_to_J7" to="J9_to_N_out_9s" type="bus" departLane="best" departSpeed="max"/>
    <trip id="bus_33" depart="909.57" from="N_out_6_to_J6" to="J4_to_N_out_4" type="bus" departLane="best" departSpeed="max"/>
    <trip id="bus_34" depart="953.97" from="N_out_7_to_J7" to="J1_to_N_out_1w" type="bus" departLane="best" departSpeed="max"/>
    <trip id="bus_35" depart="1009.88" from="N_out_9_to_J9" to="J3_to_N_out_3" type="bus" departLane="best" departSpeed="max"/>
    <trip id="bus_36" depart="1053.20" from="N_out_9_to_J9" to="J9_to_N_out_9" type="bus" departLane="best" departSpeed="max"/>
    <trip id="bus_37" depart="1091.79" from="N_out_2_to_J2" to="J7_to_N_out_7" type="bus" departLane="best" departSpeed="max"/>
    <trip id="bus_38" depart="1093.31" from="N_out_3_to_J3" to="J6_to_N_out_6" type="bus" departLane="best" departSpeed="max"/>
    <trip id="bus_39" depart="1140.81" from="N_out_3_to_J3" to="J4_to_N_out_4" type="bus" departLane="best" departSpeed="max"/>
    <trip id="bus_40" depart="1180.68" from="N_out_6_to_J6" to="J7_to_N_out_7" type="bus" departLane="best" departSpeed="max"/>
    <trip id="bus_41" depart="1220.54" from="N_out_1_to_J1" to="J9_to_N_out_9s" type="bus" departLane="best" departSpeed="max"/>
    <trip id="bus_42" depart="1271.79" from="N_out_4_to_J4" to="J2_to_N_out_2" type="bus" departLane="best" departSpeed="max"/>
    <trip id="bus_43" depart="1274.64" from="N_out_7s_to_J7" to="J9_to_N_out_9" type="bus" departLane="best" departSpeed="max"/>
    <trip id="bus_44" depart="1316.79" from="N_out_3e_to_J3" to="J3_to_N_out_3e" type="bus" departLane="best" departSpeed="max"/>
    <trip id="bus_45" depart="1319.62" from="N_out_3_to_J3" to="J7_to_N_out_7s" type="bus" departLane="best" departSpeed="max"/>
    <trip id="bus_46" depart="1322.65" from="N_out_3_to_J3" to="J7_to_N_out_7" type="bus" departLane="best" departSpeed="max"/>
    <trip id="bus_47" depart="1361.79" from="N_out_2_to_J2" to="J3_to_N_out_3" type="bus" departLane="best" departSpeed="max"/>
    <trip id="bus_48" depart="1364.60" from="N_out_7s_to_J7" to="J7_to_N_out_7" type="bus" departLane="best" departSpeed="max"/>
    <trip id="bus_49" depart="1367.28" from="N_out_1w_to_J1" to="J3_to_N_out_3" type="bus" departLane="best" departSpeed="max"/>
    <trip id="bus_50" depart="1412.70" from="N_out_8_to_J8" to="J9_to_N_out_9" type="bus" departLane="best" departSpeed="max"/>
    <trip id="bus_51" depart="1448.71" from="N_out_3e_to_J3" to="J6_to_N_out_6" type="bus" departLane="best" departSpeed="max"/>
    <trip id="bus_52" depart="1496.79" from="N_out_1_to_J1" to="J8_to_N_out_8" type="bus" departLane="best" departSpeed="max"/>
    <trip id="bus_53" depart="1499.05" from="N_out_6_to_J6" to="J9_to_N_out_9" type="bus" departLane="best" departSpeed="max"/>
    <trip id="bus_54" depart="1501.59" from="N_out_7s_to_J7" to="J1_to_N_out_1" type="bus" departLane="best" departSpeed="max"/>
    <trip id="bus_55" depart="1541.79" from="N_out_3_to_J3" to="J3_to_N_out_3e" type="bus" departLane="best" departSpeed="max"/>
    <trip id="bus_56" depart="1544.66" from="N_out_3e_to_J3" to="J3_to_N_out_3e" type="bus" departLane="best" departSpeed="max"/>
    <trip id="bus_57" depart="1586.79" from="N_out_4_to_J4" to="J1_to_N_out_1w" type="bus" departLane="best" departSpeed="max"/>
    <trip id="bus_58" depart="1588.78" from="N_out_7s_to_J7" to="J1_to_N_out_1w" type="bus" departLane="best" departSpeed="max"/>
    <trip id="bus_59" depart="1628.40" from="N_out_6_to_J6" to="J9_to_N_out_9s" type="bus" departLane="best" departSpeed="max"/>
    <trip id="bus_60" depart="1675.80" from="N_out_3e_to_J3" to="J7_to_N_out_7" type="bus" departLane="best" departSpeed="max"/>
    <trip id="bus_61" depart="1720.34" from="N_out_8_to_J8" to="J7_to_N_out_7" type="bus" departLane="best" departSpeed="max"/>
    <trip id="bus_62" depart="1771.21" from="N_out_9s_to_J9" to="J6_to_N_out_6" type="bus" departLane="best" departSpeed="max"/>
    <trip id="bus_63" depart="1814.06" from="N_out_3_to_J3" to="J6_to_N_out_6" type="bus" departLane="best" departSpeed="max"/>
    <trip id="bus_64" depart="1860.61" from="N_out_9s_to_J9" to="J7_to_N_out_7s" type="bus" departLane="best" departSpeed="max"/>
    <trip id="bus_65" depart="1901.79" from="N_out_7s_to_J7" to="J9_to_N_out_9" type="bus" departLane="best" departSpeed="max"/>
    <trip id="bus_66" depart="1904.64" from="N_out_7s_to_J7" to="J1_to_N_out_1w" type="bus" departLane="best" departSpeed="max"/>
    <trip id="bus_67" depart="1954.14" from="N_out_1w_to_J1" to="J9_to_N_out_9" type="bus" departLane="best" departSpeed="max"/>
    <trip id="bus_68" depart="1989.90" from="N_out_6_to_J6" to="J9_to_N_out_9" type="bus" departLane="best" departSpeed="max"/>
    <trip id="bus_69" depart="2038.57" from="N_out_6_to_J6" to="J7_to_N_out_7" type="bus" departLane="best" departSpeed="max"/>
    <trip id="bus_70" depart="2081.79" from="N_out_3e_to_J3" to="J7_to_N_out_7" type="bus" departLane="best" departSpeed="max"/>
    <trip id="bus_71" depart="2084.72" from="N_out_6_to_J6" to="J9_to_N_out_9" type="bus" departLane="best" departSpeed="max"/>
    <trip id="bus_72" depart="2087.41" from="N_out_1_to_J1" to="J3_to_N_out_3e" type="bus" departLane="best" departSpeed="max"/>
    <trip id="bus_73" depart="2135.48" from="N_out_9s_to_J9" to="J9_to_N_out_9s" type="bus" departLane="best" departSpeed="max"/>
    <trip id="bus_74" depart="2163.20" from="N_out_6_to_J6" to="J9_to_N_out_9s" type="bus" departLane="best" departSpeed="max"/>
    <trip id="bus_75" depart="2216.79" from="N_out_6_to_J6" to="J9_to_N_out_9" type="bus" departLane="best" departSpeed="max"/>
    <trip id="bus_76" depart="2219.16" from="N_out_7_to_J7" to="J1_to_N_out_1" type="bus" departLane="best" departSpeed="max"/>
    <trip id="bus_77" depart="2221.34" from="N_out_6_to_J6" to="J7_to_N_out_7" type="bus" departLane="best" departSpeed="max"/>
    <trip id="bus_78" depart="2261.79" from="N_out_6_to_J6" to="J7_to_N_out_7" type="bus" departLane="best" departSpeed="max"/>
    <trip id="bus_79" depart="2264.05" from="N_out_2_to_J2" to="J1_to_N_out_1" type="bus" departLane="best" departSpeed="max"/>
</routes>
