<?xml version="1.0" ?>
<routes xmlns:xsi="http://www.w3.org/2001/XMLSchema-instance" xsi:noNamespaceSchemaLocation="http://sumo.dlr.de/xsd/routes_file.xsd">
    <trip id="car_eb_0" depart="0.00" from="N_out_7s_to_J7" to="J3_to_N_out_3e" type="car" departLane="best" departSpeed="max"/>
    <trip id="car_eb_1" depart="34.59" from="N_out_7s_to_J7" to="J6_to_N_out_6" type="car" departLane="best" departSpeed="max"/>
    <trip id="car_eb_2" depart="78.85" from="N_out_4_to_J4" to="J6_to_N_out_6" type="car" departLane="best" departSpeed="max"/>
    <trip id="car_eb_3" depart="80.12" from="N_out_1w_to_J1" to="J9_to_N_out_9s" type="car" departLane="best" departSpeed="max"/>
    <trip id="car_eb_4" depart="84.72" from="N_out_4_to_J4" to="J9_to_N_out_9" type="car" departLane="best" departSpeed="max"/>
    <trip id="car_eb_5" depart="116.33" from="N_out_4_to_J4" to="J9_to_N_out_9" type="car" departLane="best" departSpeed="max"/>
    <trip id="car_eb_6" depart="147.34" from="N_out_7s_to_J7" to="J6_to_N_out_6" type="car" departLane="best" departSpeed="max"/>
    <trip id="car_eb_7" depart="187.09" from="N_out_1w_to_J1" to="J9_to_N_out_9s" type="car" departLane="best" departSpeed="max"/>
    <trip id="car_eb_8" depart="224.46" from="N_out_4_to_J4" to="J9_to_N_out_9s" type="car" departLane="best" departSpeed="max"/>
    <trip id="car_eb_9" depart="226.38" from="N_out_1w_to_J1" to="J3_to_N_out_3e" type="car" departLane="best" departSpeed="max"/>
    <trip id="car_eb_10" depart="227.99" from="N_out_1w_to_J1" to="J3_to_N_out_3e" type="car" departLane="best" departSpeed="max"/>
    <trip id="car_eb_11" depart="232.43" from="N_out_7s_to_J7" to="J3_to_N_out_3e" type="car" departLane="best" departSpeed="max"/>
    <trip id="car_eb_12" depart="261.66" from="N_out_7s_to_J7" to="J9_to_N_out_9s" type="car" departLane="best" departSpeed="max"/>
    <trip id="car_eb_13" depart="292.32" from="N_out_1w_to_J1" to="J3_to_N_out_3e" type="car" departLane="best" departSpeed="max"/>
    <trip id="car_eb_14" depart="294.05" from="N_out_7s_to_J7" to="J3_to_N_out_3e" type="car" departLane="best" departSpeed="max"/>
    <trip id="car_eb_15" depart="297.20" from="N_out_4_to_J4" to="J6_to_N_out_6" type="car" departLane="best" departSpeed="max"/>
    <trip id="car_eb_16" depart="328.31" from="N_out_1w_to_J1" to="J3_to_N_out_3e" type="car" departLane="best" departSpeed="max"/>
    <trip id="car_eb_17" depart="359.63" from="N_out_4_to_J4" to="J9_to_N_out_9s" type="car" departLane="best" departSpeed="max"/>
    <trip id="car_eb_18" depart="391.06" from="N_out_4_to_J4" to="J6_to_N_out_6" type="car" departLane="best" departSpeed="max"/>
    <trip id="car_eb_19" depart="420.11" from="N_out_4_to_J4" to="J6_to_N_out_6" type="car" departLane="best" departSpeed="max"/>
    <trip id="car_eb_20" depart="421.90" from="N_out_7s_to_J7" to="J3_to_N_out_3e" type="car" departLane="best" departSpeed="max"/>
    <trip id="car_eb_21" depart="450.62" from="N_out_1w_to_J1" to="J9_to_N_out_9" type="car" departLane="best" departSpeed="max"/>
    <trip id="car_eb_22" depart="452.37" from="N_out_4_to_J4" to="J9_to_N_out_9" type="car" departLane="best" departSpeed="max"/>
    <trip id="car_eb_23" depart="455.25" from="N_out_1w_to_J1" to="J3_to_N_out_3e" type="car" departLane="best" departSpeed="max"/>
    <trip id="car_eb_24" depart="476.00" from="N_out_4_to_J4" to="J6_to_N_out_6" type="car" departLane="best" departSpeed="max"/>
    <trip id="car_eb_25" depart="508.01" from="N_out_7s_to_J7" to="J9_to_N_out_9s" type="car" departLane="best" departSpeed="max"/>
    <trip id="car_eb_26" depart="539.14" from="N_out_1w_to_J1" to="J9_to_N_out_9s" type="car" departLane="best" departSpeed="max"/>
    <trip id="car_eb_27" depart="540.73" from="N_out_4_to_J4" to="J3_to_N_out_3e" type="car" departLane="best" departSpeed="max"/>
    <trip id="car_eb_28" depart="567.72" from="N_out_7s_to_J7" to="J9_to_N_out_9" type="car" departLane="best" departSpeed="max"/>
    <trip id="car_eb_29" depart="569.27" from="N_out_4_to_J4" to="J9_to_N_out_9" type="car" departLane="best" departSpeed="max"/>
    <trip id="car_eb_31" depart="572.48" from="N_out_1w_to_J1" to="J6_to_N_out_6" type="car" departLane="best" departSpeed="max"/>
    <trip id="car_eb_30" depart="573.46" from="N_out_7s_to_J7" to="J9_to_N_out_9s" type="car" departLane="best" departSpeed="max"/>
    <trip id="car_eb_32" depart="591.16" from="N_out_7s_to_J7" to="J3_to_N_out_3e" type="car" departLane="best" departSpeed="max"/>
    <trip id="car_eb_33" depart="623.63" from="N_out_4_to_J4" to="J6_to_N_out_6" type="car" departLane="best" departSpeed="max"/>
    <trip id="car_eb_34" depart="625.95" from="N_out_7s_to_J7" to="J9_to_N_out_9" type="car" departLane="best" departSpeed="max"/>
    <trip id="car_eb_35" depart="625.98" from="N_out_4_to_J4" to="J6_to_N_out_6" type="car" departLane="best" departSpeed="max"/>
    <trip id="car_eb_36" depart="653.58" from="N_out_4_to_J4" to="J9_to_N_out_9" type="car" departLane="best" departSpeed="max"/>
    <trip id="car_eb_37" depart="674.93" from="N_out_1w_to_J1" to="J3_to_N_out_3e" type="car" departLane="best" departSpeed="max"/>
    <trip id="car_eb_38" depart="709.80" from="N_out_1w_to_J1" to="J3_to_N_out_3e" type="car" departLane="best" departSpeed="max"/>
    <trip id="car_eb_39" depart="730.89" from="N_out_4_to_J4" to="J9_to_N_out_9s" type="car" departLane="best" departSpeed="max"/>
    <trip id="car_eb_40" depart="733.42" from="N_out_1w_to_J1" to="J9_to_N_out_9s" type="car" departLane="best" departSpeed="max"/>
    <trip id="car_eb_41" depart="760.58" from="N_out_7s_to_J7" to="J6_to_N_out_6" type="car" departLane="best" departSpeed="max"/>
    <trip id="car_eb_42" depart="782.22" from="N_out_1w_to_J1" to="J3_to_N_out_3e" type="car" departLane="best" departSpeed="max"/>
    <trip id="car_eb_43" depart="806.95" from="N_out_7s_to_J7" to="J9_to_N_out_9" type="car" departLane="best" departSpeed="max"/>
    <trip id="car_eb_44" depart="833.12" from="N_out_4_to_J4" to="J6_to_N_out_6" type="car" departLane="best" departSpeed="max"/>
    <trip id="car_eb_45" depart="856.89" from="N_out_4_to_J4" to="J6_to_N_out_6" type="car" departLane="best" departSpeed="max"/>
    <trip id="car_eb_46" depart="877.60" from="N_out_7s_to_J7" to="J6_to_N_out_6" type="car" departLane="best" departSpeed="max"/>
    <trip id="car_eb_47" depart="906.21" from="N_out_7s_to_J7" to="J6_to_N_out_6" type="car" departLane="best" departSpeed="max"/>
    <trip id="car_eb_48" depart="907.47" from="N_out_7s_to_J7" to="J3_to_N_out_3e" type="car" departLane="best" departSpeed="max"/>
    <trip id="car_eb_49" depart="909.33" from="N_out_1w_to_J1" to="J9_to_N_out_9s" type="car" departLane="best" departSpeed="max"/>
    <trip id="car_eb_50" depart="932.92" from="N_out_1w_to_J1" to="J3_to_N_out_3e" type="car" departLane="best" departSpeed="max"/>
    <trip id="car_eb_51" depart="954.21" from="N_out_1w_to_J1" to="J9_to_N_out_9s" type="car" departLane="best" departSpeed="max"/>
    <trip id="car_eb_52" depart="955.63" from="N_out_1w_to_J1" to="J6_to_N_out_6" type="car" departLane="best" departSpeed="max"/>
    <trip id="car_eb_53" depart="960.00" from="N_out_7s_to_J7" to="J9_to_N_out_9" type="car" departLane="best" departSpeed="max"/>
    <trip id="car_eb_54" depart="974.89" from="N_out_4_to_J4" to="J3_to_N_out_3e" type="car" departLane="best" departSpeed="max"/>
    <trip id="car_eb_55" depart="1002.21" from="N_out_4_to_J4" to="J3_to_N_out_3e" type="car" departLane="best" departSpeed="max"/>
    <trip id="car_eb_57" depart="1004.92" from="N_out_4_to_J4" to="J9_to_N_out_9s" type="car" departLane="best" departSpeed="max"/>
    <trip id="car_eb_56" depart="1005.04" from="N_out_4_to_J4" to="J3_to_N_out_3e" type="car" departLane="best" departSpeed="max"/>
    <trip id="car_eb_58" depart="1005.93" from="N_out_4_to_J4" to="J9_to_N_out_9s" type="car" departLane="best" departSpeed="max"/>
    <trip id="car_eb_59" depart="1023.21" from="N_out_7s_to_J7" to="J9_to_N_out_9" type="car" departLane="best" departSpeed="max"/>
    <trip id="car_eb_60" depart="1048.18" from="N_out_7s_to_J7" to="J9_to_N_out_9s" type="car" departLane="best" departSpeed="max"/>
    <trip id="car_eb_61" depart="1077.67" from="N_out_1w_to_J1" to="J9_to_N_out_9s" type="car" departLane="best" departSpeed="max"/>
    <trip id="car_eb_62" depart="1098.21" from="N_out_4_to_J4" to="J3_to_N_out_3e" type="car" departLane="best" departSpeed="max"/>
    <trip id="car_eb_63" depart="1099.64" from="N_out_7s_to_J7" to="J9_to_N_out_9s" type="car" departLane="best" departSpeed="max"/>
    <trip id="car_eb_64" depart="1101.61" from="N_out_1w_to_J1" to="J9_to_N_out_9s" type="car" departLane="best" departSpeed="max"/>
    <trip id="car_eb_65" depart="1122.21" from="N_out_1w_to_J1" to="J9_to_N_out_9" type="car" departLane="best" departSpeed="max"/>
    <trip id="car_eb_66" depart="1123.25" from="N_out_7s_to_J7" to="J9_to_N_out_9" type="car" departLane="best" departSpeed="max"/>
    <trip id="car_eb_67" depart="1127.30" from="N_out_4_to_J4" to="J9_to_N_out_9s" type="car" departLane="best" departSpeed="max"/>
    <trip id="car_eb_68" depart="1128.28" from="N_out_7s_to_J7" to="J9_to_N_out_9" type="car" departLane="best" departSpeed="max"/>
    <trip id="car_eb_69" depart="1149.37" from="N_out_7s_to_J7" to="J9_to_N_out_9" type="car" departLane="best" departSpeed="max"/>
    <trip id="car_eb_70" depart="1170.21" from="N_out_1w_to_J1" to="J6_to_N_out_6" type="car" departLane="best" departSpeed="max"/>
    <trip id="car_eb_71" depart="1171.99" from="N_out_4_to_J4" to="J6_to_N_out_6" type="car" departLane="best" departSpeed="max"/>
    <trip id="car_eb_72" depart="1175.30" from="N_out_4_to_J4" to="J9_to_N_out_9s" type="car" departLane="best" departSpeed="max"/>
    <trip id="car_eb_73" depart="1178.33" from="N_out_4_to_J4" to="J3_to_N_out_3e" type="car" departLane="best" departSpeed="max"/>
    <trip id="car_eb_74" depart="1189.85" from="N_out_4_to_J4" to="J9_to_N_out_9s" type="car" departLane="best" departSpeed="max"/>
    <trip id="car_eb_75" depart="1219.12" from="N_out_4_to_J4" to="J9_to_N_out_9s" type="car" departLane="best" departSpeed="max"/>
    <trip id="car_eb_76" depart="1240.90" from="N_out_4_to_J4" to="J9_to_N_out_9" type="car" departLane="best" departSpeed="max"/>
    <trip id="car_eb_77" depart="1265.31" from="N_out_4_to_J4" to="J9_to_N_out_9s" type="car" departLane="best" departSpeed="max"/>
    <trip id="car_eb_78" depart="1290.34" from="N_out_4_to_J4" to="J3_to_N_out_3e" type="car" departLane="best" departSpeed="max"/>
    <trip id="car_eb_79" depart="1315.85" from="N_out_4_to_J4" to="J9_to_N_out_9s" type="car" departLane="best" departSpeed="max"/>
    <trip id="car_eb_80" depart="1338.43" from="N_out_4_to_J4" to="J9_to_N_out_9s" type="car" departLane="best" departSpeed="max"/>
    <trip id="car_eb_81" depart="1365.82" from="N_out_7s_to_J7" to="J3_to_N_out_3e" type="car" departLane="best" departSpeed="max"/>
    <trip id="car_eb_82" depart="1386.21" from="N_out_1w_to_J1" to="J9_to_N_out_9" type="car" departLane="best" departSpeed="max"/>
    <trip id="car_eb_83" depart="1388.72" from="N_out_7s_to_J7" to="J9_to_N_out_9" type="car" departLane="best" departSpeed="max"/>
    <trip id="car_eb_84" depart="1410.21" from="N_out_7s_to_J7" to="J3_to_N_out_3e" type="car" departLane="best" departSpeed="max"/>
    <trip id="car_eb_85" depart="1411.71" from="N_out_4_to_J4" to="J9_to_N_out_9" type="car" departLane="best" departSpeed="max"/>
    <trip id="car_eb_86" depart="1414.18" from="N_out_1w_to_J1" to="J9_to_N_out_9" type="car" departLane="best" departSpeed="max"/>
    <trip id="car_eb_87" depart="1416.57" from="N_out_1w_to_J1" to="J6_to_N_out_6" type="car" departLane="best" departSpeed="max"/>
    <trip id="car_eb_88" depart="1434.83" from="N_out_4_to_J4" to="J9_to_N_out_9" type="car" departLane="best" departSpeed="max"/>
    <trip id="car_eb_89" depart="1460.98" from="N_out_4_to_J4" to="J9_to_N_out_9" type="car" departLane="best" departSpeed="max"/>
    <trip id="car_eb_90" depart="1486.15" from="N_out_7s_to_J7" to="J3_to_N_out_3e" type="car" departLane="best" departSpeed="max"/>
    <trip id="car_eb_91" depart="1506.21" from="N_out_1w_to_J1" to="J9_to_N_out_9" type="car" departLane="best" departSpeed="max"/>
    <trip id="car_eb_92" depart="1509.13" from="N_out_4_to_J4" to="J3_to_N_out_3e" type="car" departLane="best" departSpeed="max"/>
    <trip id="car_eb_93" depart="1510.78" from="N_out_1w_to_J1" to="J3_to_N_out_3e" type="car" departLane="best" departSpeed="max"/>
    <trip id="car_eb_94" depart="1514.43" from="N_out_4_to_J4" to="J3_to_N_out_3e" type="car" departLane="best" departSpeed="max"/>
    <trip id="car_eb_95" depart="1527.50" from="N_out_1w_to_J1" to="J3_to_N_out_3e" type="car" departLane="best" departSpeed="max"/>
    <trip id="car_eb_96" depart="1550.95" from="N_out_4_to_J4" to="J9_to_N_out_9" type="car" departLane="best" departSpeed="max"/>
    <trip id="car_eb_97" depart="1577.21" from="N_out_4_to_J4" to="J9_to_N_out_9" type="car" departLane="best" departSpeed="max"/>
    <trip id="car_eb_98" depart="1602.21" from="N_out_1w_to_J1" to="J9_to_N_out_9s" type="car" departLane="best" departSpeed="max"/>
    <trip id="car_eb_100" depart="1605.11" from="N_out_7s_to_J7" to="J3_to_N_out_3e" type="car" departLane="best" departSpeed="max"/>
    <trip id="car_eb_99" depart="1605.18" from="N_out_7s_to_J7" to="J6_to_N_out_6" type="car" departLane="best" departSpeed="max"/>
    <trip id="car_eb_101" depart="1609.78" from="N_out_4_to_J4" to="J9_to_N_out_9" type="car" departLane="best" departSpeed="max"/>
    <trip id="car_eb_102" depart="1623.36" from="N_out_1w_to_J1" to="J6_to_N_out_6" type="car" departLane="best" departSpeed="max"/>
    <trip id="car_eb_103" depart="1648.47" from="N_out_7s_to_J7" to="J9_to_N_out_9" type="car" departLane="best" departSpeed="max"/>
    <trip id="car_eb_104" depart="1672.68" from="N_out_4_to_J4" to="J6_to_N_out_6" type="car" departLane="best" departSpeed="max"/>
    <trip id="car_eb_105" depart="1698.21" from="N_out_1w_to_J1" to="J6_to_N_out_6" type="car" departLane="best" departSpeed="max"/>
    <trip id="car_eb_106" depart="1700.99" from="N_out_4_to_J4" to="J9_to_N_out_9" type="car" departLane="best" departSpeed="max"/>
    <trip id="car_eb_107" depart="1718.16" from="N_out_1w_to_J1" to="J9_to_N_out_9" type="car" departLane="best" departSpeed="max"/>
    <trip id="car_eb_108" depart="1746.21" from="N_out_4_to_J4" to="J9_to_N_out_9" type="car" departLane="best" departSpeed="max"/>
    <trip id="car_eb_109" depart="1749.14" from="N_out_1w_to_J1" to="J9_to_N_out_9s" type="car" departLane="best" departSpeed="max"/>
    <trip id="car_eb_110" depart="1773.33" from="N_out_7s_to_J7" to="J9_to_N_out_9s" type="car" departLane="best" departSpeed="max"/>
    <trip id="car_eb_111" depart="1797.88" from="N_out_1w_to_J1" to="J9_to_N_out_9s" type="car" departLane="best" departSpeed="max"/>
    <trip id="car_eb_112" depart="1821.98" from="N_out_4_to_J4" to="J9_to_N_out_9" type="car" departLane="best" departSpeed="max"/>
    <trip id="car_eb_113" depart="1839.58" from="N_out_7s_to_J7" to="J3_to_N_out_3e" type="car" departLane="best" departSpeed="max"/>
    <trip id="car_eb_114" depart="1868.17" from="N_out_7s_to_J7" to="J9_to_N_out_9" type="car" departLane="best" departSpeed="max"/>
    <trip id="car_eb_115" depart="1885.65" from="N_out_7s_to_J7" to="J6_to_N_out_6" type="car" departLane="best" departSpeed="max"/>
    <trip id="car_eb_116" depart="1912.40" from="N_out_4_to_J4" to="J9_to_N_out_9s" type="car" departLane="best" departSpeed="max"/>
    <trip id="car_eb_117" depart="1938.21" from="N_out_4_to_J4" to="J6_to_N_out_6" type="car" departLane="best" departSpeed="max"/>
    <trip id="car_eb_118" depart="1940.45" from="N_out_4_to_J4" to="J9_to_N_out_9" type="car" departLane="best" departSpeed="max"/>
    <trip id="car_eb_119" depart="1942.26" from="N_out_7s_to_J7" to="J9_to_N_out_9" type="car" departLane="best" departSpeed="max"/>
    <trip id="car_eb_120" depart="1945.03" from="N_out_1w_to_J1" to="J3_to_N_out_3e" type="car" departLane="best" departSpeed="max"/>
    <trip id="car_eb_121" depart="1964.57" from="N_out_4_to_J4" to="J9_to_N_out_9s" type="car" departLane="best" departSpeed="max"/>
    <trip id="car_eb_122" depart="1986.21" from="N_out_4_to_J4" to="J9_to_N_out_9" type="car" departLane="best" departSpeed="max"/>
    <trip id="car_eb_123" depart="1989.03" from="N_out_4_to_J4" to="J6_to_N_out_6" type="car" departLane="best" departSpeed="max"/>
    <trip id="car_eb_124" depart="2010.21" from="N_out_1w_to_J1" to="J9_to_N_out_9" type="car" departLane="best" departSpeed="max"/>
    <trip id="car_eb_125" depart="2011.60" from="N_out_7s_to_J7" to="J6_to_N_out_6" type="car" departLane="best" departSpeed="max"/>
    <trip id="car_eb_127" depart="2013.38" from="N_out_4_to_J4" to="J9_to_N_out_9" type="car" departLane="best" departSpeed="max"/>
    <trip id="car_eb_126" depart="2015.12" from="N_out_1w_to_J1" to="J3_to_N_out_3e" type="car" departLane="best" departSpeed="max"/>
    <trip id="car_eb_128" depart="2034.21" from="N_out_1w_to_J1" to="J6_to_N_out_6" type="car" departLane="best" departSpeed="max"/>
    <trip id="car_eb_129" depart="2035.80" from="N_out_1w_to_J1" to="J3_to_N_out_3e" type="car" departLane="best" departSpeed="max"/>
    <trip id="car_eb_130" depart="2055.91" from="N_out_1w_to_J1" to="J9_to_N_out_9" type="car" departLane="best" departSpeed="max"/>
    <trip id="car_eb_131" depart="2079.10" from="N_out_7s_to_J7" to="J9_to_N_out_9s" type="car" departLane="best" departSpeed="max"/>
    <trip id="car_eb_132" depart="2105.07" from="N_out_1w_to_J1" to="J3_to_N_out_3e" type="car" departLane="best" departSpeed="max"/>
    <trip id="car_eb_133" depart="2131.73" from="N_out_7s_to_J7" to="J3_to_N_out_3e" type="car" departLane="best" departSpeed="max"/>
    <trip id="car_eb_134" depart="2150.35" from="N_out_1w_to_J1" to="J3_to_N_out_3e" type="car" departLane="best" departSpeed="max"/>
    <trip id="car_eb_135" depart="2178.21" from="N_out_4_to_J4" to="J6_to_N_out_6" type="car" departLane="best" departSpeed="max"/>
    <trip id="car_eb_136" depart="2179.77" from="N_out_7s_to_J7" to="J9_to_N_out_9" type="car" departLane="best" departSpeed="max"/>
    <trip id="car_eb_137" depart="2198.76" from="N_out_4_to_J4" to="J6_to_N_out_6" type="car" departLane="best" departSpeed="max"/>
    <trip id="car_eb_138" depart="2226.21" from="N_out_1w_to_J1" to="J9_to_N_out_9s" type="car" departLane="best" departSpeed="max"/>
    <trip id="car_eb_139" depart="2227.43" from="N_out_4_to_J4" to="J3_to_N_out_3e" type="car" departLane="best" departSpeed="max"/>
    <trip id="car_eb_141" depart="2229.42" from="N_out_7s_to_J7" to="J6_to_N_out_6" type="car" departLane="best" departSpeed="max"/>
    <trip id="car_eb_140" depart="2232.10" from="N_out_4_to_J4" to="J9_to_N_out_9" type="car" departLane="best" departSpeed="max"/>
    <trip id="car_eb_142" depart="2250.31" from="N_out_1w_to_J1" to="J9_to_N_out_9s" type="car" departLane="best" departSpeed="max"/>
    <trip id="car_eb_143" depart="2274.21" from="N_out_4_to_J4" to="J9_to_N_out_9s" type="car" departLane="best" departSpeed="max"/>
    <trip id="car_eb_145" depart="2276.33" from="N_out_1w_to_J1" to="J9_to_N_out_9s" type="car" departLane="best" departSpeed="max"/>
    <trip id="car_eb_144" depart="2277.10" from="N_out_1w_to_J1" to="J9_to_N_out_9s" type="car" departLane="best" departSpeed="max"/>
    <trip id="car_eb_146" depart="2281.42" from="N_out_1w_to_J1" to="J9_to_N_out_9" type="car" departLane="best" departSpeed="max"/>
    <trip id="car_eb_147" depart="2298.21" from="N_out_1w_to_J1" to="J9_to_N_out_9" type="car" departLane="best" departSpeed="max"/>
    <trip id="car_eb_148" depart="2300.50" from="N_out_4_to_J4" to="J3_to_N_out_3e" type="car" departLane="best" departSpeed="max"/>
    <trip id="car_eb_149" depart="2301.51" from="N_out_4_to_J4" to="J6_to_N_out_6" type="car" departLane="best" departSpeed="max"/>
</routes>
