<?xml version="1.0" ?>
<routes xmlns:xsi="http://www.w3.org/2001/XMLSchema-instance" xsi:noNamespaceSchemaLocation="http://sumo.dlr.de/xsd/routes_file.xsd">
    <trip id="motorcycle_eb_0" depart="0.00" from="N_out_1w_to_J1" to="J6_to_N_out_6" type="motorcycle" departLane="best" departSpeed="max"/>
    <trip id="motorcycle_eb_1" depart="1.91" from="N_out_1w_to_J1" to="J6_to_N_out_6" type="motorcycle" departLane="best" departSpeed="max"/>
    <trip id="motorcycle_eb_2" depart="4.06" from="N_out_7s_to_J7" to="J9_to_N_out_9s" type="motorcycle" departLane="best" departSpeed="max"/>
    <trip id="motorcycle_eb_3" depart="8.83" from="N_out_1w_to_J1" to="J9_to_N_out_9" type="motorcycle" departLane="best" departSpeed="max"/>
    <trip id="motorcycle_eb_4" depart="14.96" from="N_out_1w_to_J1" to="J3_to_N_out_3e" type="motorcycle" departLane="best" departSpeed="max"/>
    <trip id="motorcycle_eb_5" depart="16.15" from="N_out_7s_to_J7" to="J9_to_N_out_9" type="motorcycle" departLane="best" departSpeed="max"/>
    <trip id="motorcycle_eb_6" depart="22.38" from="N_out_7s_to_J7" to="J9_to_N_out_9s" type="motorcycle" departLane="best" departSpeed="max"/>
    <trip id="motorcycle_eb_7" depart="24.53" from="N_out_1w_to_J1" to="J6_to_N_out_6" type="motorcycle" departLane="best" departSpeed="max"/>
    <trip id="motorcycle_eb_8" depart="24.57" from="N_out_4_to_J4" to="J3_to_N_out_3e" type="motorcycle" departLane="best" departSpeed="max"/>
    <trip id="motorcycle_eb_10" depart="28.58" from="N_out_4_to_J4" to="J6_to_N_out_6" type="motorcycle" departLane="best" departSpeed="max"/>
    <trip id="motorcycle_eb_11" depart="30.67" from="N_out_7s_to_J7" to="J6_to_N_out_6" type="motorcycle" departLane="best" departSpeed="max"/>
    <trip id="motorcycle_eb_9" depart="31.03" from="N_out_4_to_J4" to="J9_to_N_out_9s" type="motorcycle" departLane="best" departSpeed="max"/>
    <trip id="motorcycle_eb_12" depart="37.09" from="N_out_7s_to_J7" to="J9_to_N_out_9s" type="motorcycle" departLane="best" departSpeed="max"/>
    <trip id="motorcycle_eb_13" depart="38.75" from="N_out_7s_to_J7" to="J9_to_N_out_9" type="motorcycle" departLane="best" departSpeed="max"/>
    <trip id="motorcycle_eb_14" depart="39.76" from="N_out_4_to_J4" to="J9_to_N_out_9s" type="motorcycle" departLane="best" departSpeed="max"/>
    <trip id="motorcycle_eb_15" depart="40.39" from="N_out_7s_to_J7" to="J9_to_N_out_9s" type="motorcycle" departLane="best" departSpeed="max"/>
    <trip id="motorcycle_eb_16" depart="44.04" from="N_out_4_to_J4" to="J6_to_N_out_6" type="motorcycle" departLane="best" departSpeed="max"/>
    <trip id="motorcycle_eb_17" depart="44.54" from="N_out_4_to_J4" to="J9_to_N_out_9s" type="motorcycle" departLane="best" departSpeed="max"/>
    <trip id="motorcycle_eb_18" depart="52.46" from="N_out_1w_to_J1" to="J9_to_N_out_9" type="motorcycle" departLane="best" departSpeed="max"/>
    <trip id="motorcycle_eb_19" depart="58.88" from="N_out_4_to_J4" to="J9_to_N_out_9s" type="motorcycle" departLane="best" departSpeed="max"/>
    <trip id="motorcycle_eb_20" depart="60.13" from="N_out_4_to_J4" to="J3_to_N_out_3e" type="motorcycle" departLane="best" departSpeed="max"/>
    <trip id="motorcycle_eb_21" depart="63.17" from="N_out_1w_to_J1" to="J6_to_N_out_6" type="motorcycle" departLane="best" departSpeed="max"/>
    <trip id="motorcycle_eb_22" depart="66.02" from="N_out_1w_to_J1" to="J9_to_N_out_9" type="motorcycle" departLane="best" departSpeed="max"/>
    <trip id="motorcycle_eb_24" depart="66.06" from="N_out_4_to_J4" to="J9_to_N_out_9s" type="motorcycle" departLane="best" departSpeed="max"/>
    <trip id="motorcycle_eb_25" depart="67.30" from="N_out_7s_to_J7" to="J9_to_N_out_9" type="motorcycle" departLane="best" departSpeed="max"/>
    <trip id="motorcycle_eb_23" depart="67.57" from="N_out_4_to_J4" to="J6_to_N_out_6" type="motorcycle" departLane="best" departSpeed="max"/>
    <trip id="motorcycle_eb_26" depart="73.21" from="N_out_1w_to_J1" to="J6_to_N_out_6" type="motorcycle" departLane="best" departSpeed="max"/>
    <trip id="motorcycle_eb_27" depart="75.64" from="N_out_4_to_J4" to="J3_to_N_out_3e" type="motorcycle" departLane="best" departSpeed="max"/>
    <trip id="motorcycle_eb_29" depart="77.38" from="N_out_7s_to_J7" to="J9_to_N_out_9" type="motorcycle" departLane="best" departSpeed="max"/>
    <trip id="motorcycle_eb_28" depart="78.60" from="N_out_7s_to_J7" to="J9_to_N_out_9" type="motorcycle" departLane="best" departSpeed="max"/>
    <trip id="motorcycle_eb_30" depart="79.30" from="N_out_7s_to_J7" to="J9_to_N_out_9" type="motorcycle" departLane="best" departSpeed="max"/>
    <trip id="motorcycle_eb_31" depart="79.84" from="N_out_1w_to_J1" to="J6_to_N_out_6" type="motorcycle" departLane="best" departSpeed="max"/>
    <trip id="motorcycle_eb_32" depart="87.41" from="N_out_4_to_J4" to="J6_to_N_out_6" type="motorcycle" departLane="best" departSpeed="max"/>
    <trip id="motorcycle_eb_33" depart="89.75" from="N_out_1w_to_J1" to="J3_to_N_out_3e" type="motorcycle" departLane="best" departSpeed="max"/>
    <trip id="motorcycle_eb_34" depart="90.79" from="N_out_4_to_J4" to="J9_to_N_out_9" type="motorcycle" departLane="best" departSpeed="max"/>
    <trip id="motorcycle_eb_35" depart="94.14" from="N_out_4_to_J4" to="J9_to_N_out_9" type="motorcycle" departLane="best" departSpeed="max"/>
    <trip id="motorcycle_eb_36" depart="100.33" from="N_out_4_to_J4" to="J6_to_N_out_6" type="motorcycle" departLane="best" departSpeed="max"/>
    <trip id="motorcycle_eb_37" depart="107.78" from="N_out_4_to_J4" to="J9_to_N_out_9" type="motorcycle" departLane="best" departSpeed="max"/>
    <trip id="motorcycle_eb_38" depart="114.42" from="N_out_4_to_J4" to="J6_to_N_out_6" type="motorcycle" departLane="best" departSpeed="max"/>
    <trip id="motorcycle_eb_39" depart="121.25" from="N_out_7s_to_J7" to="J9_to_N_out_9" type="motorcycle" departLane="best" departSpeed="max"/>
    <trip id="motorcycle_eb_40" depart="129.16" from="N_out_4_to_J4" to="J9_to_N_out_9" type="motorcycle" departLane="best" departSpeed="max"/>
    <trip id="motorcycle_eb_41" depart="130.40" from="N_out_1w_to_J1" to="J9_to_N_out_9s" type="motorcycle" departLane="best" departSpeed="max"/>
    <trip id="motorcycle_eb_42" depart="133.32" from="N_out_7s_to_J7" to="J3_to_N_out_3e" type="motorcycle" departLane="best" departSpeed="max"/>
    <trip id="motorcycle_eb_44" depart="133.52" from="N_out_1w_to_J1" to="J9_to_N_out_9" type="motorcycle" departLane="best" departSpeed="max"/>
    <trip id="motorcycle_eb_45" depart="135.39" from="N_out_7s_to_J7" to="J6_to_N_out_6" type="motorcycle" departLane="best" departSpeed="max"/>
    <trip id="motorcycle_eb_43" depart="136.32" from="N_out_4_to_J4" to="J3_to_N_out_3e" type="motorcycle" departLane="best" departSpeed="max"/>
    <trip id="motorcycle_eb_46" depart="142.39" from="N_out_1w_to_J1" to="J3_to_N_out_3e" type="motorcycle" departLane="best" departSpeed="max"/>
    <trip id="motorcycle_eb_47" depart="149.61" from="N_out_7s_to_J7" to="J3_to_N_out_3e" type="motorcycle" departLane="best" departSpeed="max"/>
    <trip id="motorcycle_eb_48" depart="151.18" from="N_out_7s_to_J7" to="J9_to_N_out_9" type="motorcycle" departLane="best" departSpeed="max"/>
    <trip id="motorcycle_eb_49" depart="152.80" from="N_out_1w_to_J1" to="J9_to_N_out_9" type="motorcycle" departLane="best" departSpeed="max"/>
    <trip id="motorcycle_eb_50" depart="157.60" from="N_out_7s_to_J7" to="J9_to_N_out_9" type="motorcycle" departLane="best" departSpeed="max"/>
    <trip id="motorcycle_eb_51" depart="163.37" from="N_out_7s_to_J7" to="J9_to_N_out_9" type="motorcycle" departLane="best" departSpeed="max"/>
    <trip id="motorcycle_eb_52" depart="169.97" from="N_out_4_to_J4" to="J3_to_N_out_3e" type="motorcycle" departLane="best" departSpeed="max"/>
    <trip id="motorcycle_eb_53" depart="175.17" from="N_out_4_to_J4" to="J6_to_N_out_6" type="motorcycle" departLane="best" departSpeed="max"/>
    <trip id="motorcycle_eb_54" depart="184.11" from="N_out_4_to_J4" to="J3_to_N_out_3e" type="motorcycle" departLane="best" departSpeed="max"/>
    <trip id="motorcycle_eb_55" depart="189.96" from="N_out_7s_to_J7" to="J6_to_N_out_6" type="motorcycle" departLane="best" departSpeed="max"/>
    <trip id="motorcycle_eb_56" depart="196.25" from="N_out_1w_to_J1" to="J9_to_N_out_9s" type="motorcycle" departLane="best" departSpeed="max"/>
    <trip id="motorcycle_eb_57" depart="197.37" from="N_out_1w_to_J1" to="J9_to_N_out_9" type="motorcycle" departLane="best" departSpeed="max"/>
    <trip id="motorcycle_eb_59" depart="199.93" from="N_out_1w_to_J1" to="J9_to_N_out_9s" type="motorcycle" departLane="best" departSpeed="max"/>
    <trip id="motorcycle_eb_58" depart="201.02" from="N_out_1w_to_J1" to="J3_to_N_out_3e" type="motorcycle" departLane="best" departSpeed="max"/>
    <trip id="motorcycle_eb_61" depart="202.66" from="N_out_1w_to_J1" to="J3_to_N_out_3e" type="motorcycle" departLane="best" departSpeed="max"/>
    <trip id="motorcycle_eb_60" depart="202.91" from="N_out_4_to_J4" to="J9_to_N_out_9" type="motorcycle" departLane="best" departSpeed="max"/>
    <trip id="motorcycle_eb_62" depart="209.31" from="N_out_1w_to_J1" to="J9_to_N_out_9" type="motorcycle" departLane="best" departSpeed="max"/>
    <trip id="motorcycle_eb_63" depart="210.79" from="N_out_7s_to_J7" to="J9_to_N_out_9s" type="motorcycle" departLane="best" departSpeed="max"/>
    <trip id="motorcycle_eb_64" depart="213.42" from="N_out_4_to_J4" to="J3_to_N_out_3e" type="motorcycle" departLane="best" departSpeed="max"/>
    <trip id="motorcycle_eb_65" depart="214.13" from="N_out_4_to_J4" to="J3_to_N_out_3e" type="motorcycle" departLane="best" departSpeed="max"/>
    <trip id="motorcycle_eb_66" depart="215.02" from="N_out_4_to_J4" to="J3_to_N_out_3e" type="motorcycle" departLane="best" departSpeed="max"/>
    <trip id="motorcycle_eb_67" depart="215.81" from="N_out_7s_to_J7" to="J3_to_N_out_3e" type="motorcycle" departLane="best" departSpeed="max"/>
    <trip id="motorcycle_eb_69" depart="218.34" from="N_out_1w_to_J1" to="J9_to_N_out_9s" type="motorcycle" departLane="best" departSpeed="max"/>
    <trip id="motorcycle_eb_68" depart="218.79" from="N_out_4_to_J4" to="J9_to_N_out_9s" type="motorcycle" departLane="best" departSpeed="max"/>
    <trip id="motorcycle_eb_71" depart="221.04" from="N_out_7s_to_J7" to="J9_to_N_out_9" type="motorcycle" departLane="best" departSpeed="max"/>
    <trip id="motorcycle_eb_70" depart="221.81" from="N_out_1w_to_J1" to="J6_to_N_out_6" type="motorcycle" departLane="best" departSpeed="max"/>
    <trip id="motorcycle_eb_72" depart="222.27" from="N_out_7s_to_J7" to="J9_to_N_out_9" type="motorcycle" departLane="best" departSpeed="max"/>
    <trip id="motorcycle_eb_73" depart="224.36" from="N_out_4_to_J4" to="J6_to_N_out_6" type="motorcycle" departLane="best" departSpeed="max"/>
    <trip id="motorcycle_eb_74" depart="226.98" from="N_out_1w_to_J1" to="J9_to_N_out_9" type="motorcycle" departLane="best" departSpeed="max"/>
    <trip id="motorcycle_eb_77" depart="229.18" from="N_out_7s_to_J7" to="J9_to_N_out_9" type="motorcycle" departLane="best" departSpeed="max"/>
    <trip id="motorcycle_eb_75" depart="230.18" from="N_out_1w_to_J1" to="J6_to_N_out_6" type="motorcycle" departLane="best" departSpeed="max"/>
    <trip id="motorcycle_eb_76" depart="231.61" from="N_out_4_to_J4" to="J9_to_N_out_9" type="motorcycle" departLane="best" departSpeed="max"/>
    <trip id="motorcycle_eb_78" depart="236.28" from="N_out_1w_to_J1" to="J6_to_N_out_6" type="motorcycle" departLane="best" departSpeed="max"/>
    <trip id="motorcycle_eb_79" depart="241.52" from="N_out_4_to_J4" to="J9_to_N_out_9s" type="motorcycle" departLane="best" departSpeed="max"/>
    <trip id="motorcycle_eb_80" depart="242.89" from="N_out_7s_to_J7" to="J9_to_N_out_9s" type="motorcycle" departLane="best" departSpeed="max"/>
    <trip id="motorcycle_eb_81" depart="244.34" from="N_out_4_to_J4" to="J9_to_N_out_9" type="motorcycle" departLane="best" departSpeed="max"/>
    <trip id="motorcycle_eb_82" depart="247.30" from="N_out_4_to_J4" to="J6_to_N_out_6" type="motorcycle" departLane="best" departSpeed="max"/>
    <trip id="motorcycle_eb_83" depart="247.88" from="N_out_7s_to_J7" to="J3_to_N_out_3e" type="motorcycle" departLane="best" departSpeed="max"/>
    <trip id="motorcycle_eb_84" depart="249.37" from="N_out_1w_to_J1" to="J6_to_N_out_6" type="motorcycle" departLane="best" departSpeed="max"/>
    <trip id="motorcycle_eb_85" depart="253.20" from="N_out_4_to_J4" to="J6_to_N_out_6" type="motorcycle" departLane="best" departSpeed="max"/>
    <trip id="motorcycle_eb_86" depart="260.53" from="N_out_7s_to_J7" to="J3_to_N_out_3e" type="motorcycle" departLane="best" departSpeed="max"/>
    <trip id="motorcycle_eb_87" depart="266.81" from="N_out_4_to_J4" to="J9_to_N_out_9s" type="motorcycle" departLane="best" departSpeed="max"/>
    <trip id="motorcycle_eb_88" depart="268.79" from="N_out_7s_to_J7" to="J9_to_N_out_9" type="motorcycle" departLane="best" departSpeed="max"/>
    <trip id="motorcycle_eb_89" depart="272.60" from="N_out_7s_to_J7" to="J9_to_N_out_9" type="motorcycle" departLane="best" departSpeed="max"/>
    <trip id="motorcycle_eb_90" depart="273.79" from="N_out_1w_to_J1" to="J9_to_N_out_9s" type="motorcycle" departLane="best" departSpeed="max"/>
    <trip id="motorcycle_eb_92" depart="273.90" from="N_out_1w_to_J1" to="J6_to_N_out_6" type="motorcycle" departLane="best" departSpeed="max"/>
    <trip id="motorcycle_eb_91" depart="275.54" from="N_out_4_to_J4" to="J9_to_N_out_9" type="motorcycle" departLane="best" departSpeed="max"/>
    <trip id="motorcycle_eb_93" depart="280.11" from="N_out_1w_to_J1" to="J6_to_N_out_6" type="motorcycle" departLane="best" departSpeed="max"/>
    <trip id="motorcycle_eb_94" depart="284.73" from="N_out_4_to_J4" to="J6_to_N_out_6" type="motorcycle" departLane="best" departSpeed="max"/>
    <trip id="motorcycle_eb_95" depart="291.62" from="N_out_4_to_J4" to="J6_to_N_out_6" type="motorcycle" departLane="best" departSpeed="max"/>
    <trip id="motorcycle_eb_96" depart="297.27" from="N_out_7s_to_J7" to="J9_to_N_out_9" type="motorcycle" departLane="best" departSpeed="max"/>
    <trip id="motorcycle_eb_97" depart="304.03" from="N_out_1w_to_J1" to="J6_to_N_out_6" type="motorcycle" departLane="best" departSpeed="max"/>
    <trip id="motorcycle_eb_98" depart="305.81" from="N_out_4_to_J4" to="J6_to_N_out_6" type="motorcycle" departLane="best" departSpeed="max"/>
    <trip id="motorcycle_eb_99" depart="310.39" from="N_out_7s_to_J7" to="J6_to_N_out_6" type="motorcycle" departLane="best" departSpeed="max"/>
    <trip id="motorcycle_eb_100" depart="315.13" from="N_out_4_to_J4" to="J3_to_N_out_3e" type="motorcycle" departLane="best" departSpeed="max"/>
    <trip id="motorcycle_eb_101" depart="321.36" from="N_out_7s_to_J7" to="J9_to_N_out_9" type="motorcycle" departLane="best" departSpeed="max"/>
    <trip id="motorcycle_eb_102" depart="329.57" from="N_out_1w_to_J1" to="J9_to_N_out_9s" type="motorcycle" departLane="best" departSpeed="max"/>
    <trip id="motorcycle_eb_103" depart="334.81" from="N_out_7s_to_J7" to="J6_to_N_out_6" type="motorcycle" departLane="best" departSpeed="max"/>
    <trip id="motorcycle_eb_104" depart="340.98" from="N_out_4_to_J4" to="J6_to_N_out_6" type="motorcycle" departLane="best" departSpeed="max"/>
    <trip id="motorcycle_eb_105" depart="346.41" from="N_out_7s_to_J7" to="J9_to_N_out_9s" type="motorcycle" departLane="best" departSpeed="max"/>
    <trip id="motorcycle_eb_106" depart="347.46" from="N_out_1w_to_J1" to="J9_to_N_out_9s" type="motorcycle" departLane="best" departSpeed="max"/>
    <trip id="motorcycle_eb_107" depart="348.54" from="N_out_7s_to_J7" to="J9_to_N_out_9" type="motorcycle" departLane="best" departSpeed="max"/>
    <trip id="motorcycle_eb_109" depart="351.06" from="N_out_4_to_J4" to="J3_to_N_out_3e" type="motorcycle" departLane="best" departSpeed="max"/>
    <trip id="motorcycle_eb_108" depart="351.23" from="N_out_1w_to_J1" to="J9_to_N_out_9s" type="motorcycle" departLane="best" departSpeed="max"/>
    <trip id="motorcycle_eb_110" depart="352.18" from="N_out_1w_to_J1" to="J9_to_N_out_9" type="motorcycle" departLane="best" departSpeed="max"/>
    <trip id="motorcycle_eb_111" depart="358.33" from="N_out_7s_to_J7" to="J3_to_N_out_3e" type="motorcycle" departLane="best" departSpeed="max"/>
    <trip id="motorcycle_eb_112" depart="361.12" from="N_out_1w_to_J1" to="J9_to_N_out_9" type="motorcycle" departLane="best" departSpeed="max"/>
    <trip id="motorcycle_eb_113" depart="363.48" from="N_out_7s_to_J7" to="J9_to_N_out_9s" type="motorcycle" departLane="best" departSpeed="max"/>
    <trip id="motorcycle_eb_114" depart="370.16" from="N_out_1w_to_J1" to="J9_to_N_out_9s" type="motorcycle" departLane="best" departSpeed="max"/>
    <trip id="motorcycle_eb_115" depart="371.74" from="N_out_7s_to_J7" to="J9_to_N_out_9" type="motorcycle" departLane="best" departSpeed="max"/>
    <trip id="motorcycle_eb_119" depart="374.91" from="N_out_1w_to_J1" to="J3_to_N_out_3e" type="motorcycle" departLane="best" departSpeed="max"/>
    <trip id="motorcycle_eb_116" depart="375.18" from="N_out_1w_to_J1" to="J9_to_N_out_9s" type="motorcycle" departLane="best" departSpeed="max"/>
    <trip id="motorcycle_eb_117" depart="377.82" from="N_out_7s_to_J7" to="J9_to_N_out_9" type="motorcycle" departLane="best" departSpeed="max"/>
    <trip id="motorcycle_eb_118" depart="380.41" from="N_out_4_to_J4" to="J6_to_N_out_6" type="motorcycle" departLane="best" departSpeed="max"/>
    <trip id="motorcycle_eb_120" depart="382.75" from="N_out_7s_to_J7" to="J9_to_N_out_9s" type="motorcycle" departLane="best" departSpeed="max"/>
    <trip id="motorcycle_eb_121" depart="387.76" from="N_out_7s_to_J7" to="J6_to_N_out_6" type="motorcycle" departLane="best" departSpeed="max"/>
    <trip id="motorcycle_eb_122" depart="389.30" from="N_out_7s_to_J7" to="J3_to_N_out_3e" type="motorcycle" departLane="best" departSpeed="max"/>
    <trip id="motorcycle_eb_123" depart="391.99" from="N_out_1w_to_J1" to="J6_to_N_out_6" type="motorcycle" departLane="best" departSpeed="max"/>
    <trip id="motorcycle_eb_125" depart="392.25" from="N_out_7s_to_J7" to="J3_to_N_out_3e" type="motorcycle" departLane="best" departSpeed="max"/>
    <trip id="motorcycle_eb_126" depart="392.70" from="N_out_7s_to_J7" to="J9_to_N_out_9s" type="motorcycle" departLane="best" departSpeed="max"/>
    <trip id="motorcycle_eb_124" depart="394.15" from="N_out_7s_to_J7" to="J3_to_N_out_3e" type="motorcycle" departLane="best" departSpeed="max"/>
    <trip id="motorcycle_eb_127" depart="399.39" from="N_out_4_to_J4" to="J9_to_N_out_9s" type="motorcycle" departLane="best" departSpeed="max"/>
    <trip id="motorcycle_eb_128" depart="400.92" from="N_out_7s_to_J7" to="J9_to_N_out_9" type="motorcycle" departLane="best" departSpeed="max"/>
    <trip id="motorcycle_eb_130" depart="405.18" from="N_out_7s_to_J7" to="J3_to_N_out_3e" type="motorcycle" departLane="best" departSpeed="max"/>
    <trip id="motorcycle_eb_129" depart="405.37" from="N_out_4_to_J4" to="J3_to_N_out_3e" type="motorcycle" departLane="best" departSpeed="max"/>
    <trip id="motorcycle_eb_131" depart="407.24" from="N_out_7s_to_J7" to="J9_to_N_out_9s" type="motorcycle" departLane="best" departSpeed="max"/>
    <trip id="motorcycle_eb_132" depart="410.20" from="N_out_4_to_J4" to="J9_to_N_out_9s" type="motorcycle" departLane="best" departSpeed="max"/>
    <trip id="motorcycle_eb_134" depart="411.34" from="N_out_1w_to_J1" to="J6_to_N_out_6" type="motorcycle" departLane="best" departSpeed="max"/>
    <trip id="motorcycle_eb_133" depart="411.88" from="N_out_7s_to_J7" to="J9_to_N_out_9s" type="motorcycle" departLane="best" departSpeed="max"/>
    <trip id="motorcycle_eb_135" depart="415.91" from="N_out_1w_to_J1" to="J9_to_N_out_9" type="motorcycle" departLane="best" departSpeed="max"/>
    <trip id="motorcycle_eb_136" depart="422.43" from="N_out_4_to_J4" to="J9_to_N_out_9" type="motorcycle" departLane="best" departSpeed="max"/>
    <trip id="motorcycle_eb_137" depart="424.62" from="N_out_7s_to_J7" to="J9_to_N_out_9s" type="motorcycle" departLane="best" departSpeed="max"/>
    <trip id="motorcycle_eb_138" depart="425.69" from="N_out_7s_to_J7" to="J6_to_N_out_6" type="motorcycle" departLane="best" departSpeed="max"/>
    <trip id="motorcycle_eb_139" depart="426.33" from="N_out_4_to_J4" to="J3_to_N_out_3e" type="motorcycle" departLane="best" departSpeed="max"/>
    <trip id="motorcycle_eb_140" depart="427.77" from="N_out_7s_to_J7" to="J9_to_N_out_9" type="motorcycle" departLane="best" departSpeed="max"/>
    <trip id="motorcycle_eb_141" depart="432.73" from="N_out_1w_to_J1" to="J9_to_N_out_9s" type="motorcycle" departLane="best" departSpeed="max"/>
    <trip id="motorcycle_eb_142" depart="438.93" from="N_out_1w_to_J1" to="J9_to_N_out_9" type="motorcycle" departLane="best" departSpeed="max"/>
    <trip id="motorcycle_eb_143" depart="444.56" from="N_out_4_to_J4" to="J9_to_N_out_9s" type="motorcycle" departLane="best" departSpeed="max"/>
    <trip id="motorcycle_eb_144" depart="450.81" from="N_out_4_to_J4" to="J9_to_N_out_9" type="motorcycle" departLane="best" departSpeed="max"/>
    <trip id="motorcycle_eb_145" depart="453.20" from="N_out_4_to_J4" to="J9_to_N_out_9" type="motorcycle" departLane="best" departSpeed="max"/>
    <trip id="motorcycle_eb_146" depart="456.43" from="N_out_4_to_J4" to="J9_to_N_out_9s" type="motorcycle" departLane="best" departSpeed="max"/>
    <trip id="motorcycle_eb_147" depart="457.45" from="N_out_7s_to_J7" to="J6_to_N_out_6" type="motorcycle" departLane="best" departSpeed="max"/>
    <trip id="motorcycle_eb_149" depart="459.63" from="N_out_1w_to_J1" to="J6_to_N_out_6" type="motorcycle" departLane="best" departSpeed="max"/>
    <trip id="motorcycle_eb_148" depart="461.40" from="N_out_1w_to_J1" to="J6_to_N_out_6" type="motorcycle" departLane="best" departSpeed="max"/>
    <trip id="motorcycle_eb_150" depart="462.04" from="N_out_7s_to_J7" to="J9_to_N_out_9" type="motorcycle" departLane="best" departSpeed="max"/>
    <trip id="motorcycle_eb_152" depart="464.52" from="N_out_1w_to_J1" to="J6_to_N_out_6" type="motorcycle" departLane="best" departSpeed="max"/>
    <trip id="motorcycle_eb_151" depart="464.66" from="N_out_4_to_J4" to="J3_to_N_out_3e" type="motorcycle" departLane="best" departSpeed="max"/>
    <trip id="motorcycle_eb_153" depart="468.26" from="N_out_1w_to_J1" to="J9_to_N_out_9" type="motorcycle" departLane="best" departSpeed="max"/>
    <trip id="motorcycle_eb_154" depart="473.95" from="N_out_7s_to_J7" to="J9_to_N_out_9s" type="motorcycle" departLane="best" departSpeed="max"/>
    <trip id="motorcycle_eb_155" depart="479.76" from="N_out_4_to_J4" to="J9_to_N_out_9" type="motorcycle" departLane="best" departSpeed="max"/>
    <trip id="motorcycle_eb_156" depart="483.72" from="N_out_1w_to_J1" to="J9_to_N_out_9" type="motorcycle" departLane="best" departSpeed="max"/>
    <trip id="motorcycle_eb_157" depart="490.65" from="N_out_7s_to_J7" to="J6_to_N_out_6" type="motorcycle" departLane="best" departSpeed="max"/>
    <trip id="motorcycle_eb_158" depart="495.31" from="N_out_1w_to_J1" to="J9_to_N_out_9" type="motorcycle" departLane="best" departSpeed="max"/>
    <trip id="motorcycle_eb_159" depart="497.91" from="N_out_4_to_J4" to="J6_to_N_out_6" type="motorcycle" departLane="best" departSpeed="max"/>
    <trip id="motorcycle_eb_161" depart="498.47" from="N_out_4_to_J4" to="J6_to_N_out_6" type="motorcycle" departLane="best" departSpeed="max"/>
    <trip id="motorcycle_eb_163" depart="500.80" from="N_out_7s_to_J7" to="J6_to_N_out_6" type="motorcycle" departLane="best" departSpeed="max"/>
    <trip id="motorcycle_eb_160" depart="500.89" from="N_out_7s_to_J7" to="J3_to_N_out_3e" type="motorcycle" departLane="best" departSpeed="max"/>
    <trip id="motorcycle_eb_164" depart="502.03" from="N_out_7s_to_J7" to="J6_to_N_out_6" type="motorcycle" departLane="best" departSpeed="max"/>
    <trip id="motorcycle_eb_162" depart="503.75" from="N_out_1w_to_J1" to="J9_to_N_out_9s" type="motorcycle" departLane="best" departSpeed="max"/>
    <trip id="motorcycle_eb_165" depart="504.45" from="N_out_7s_to_J7" to="J9_to_N_out_9s" type="motorcycle" departLane="best" departSpeed="max"/>
    <trip id="motorcycle_eb_168" depart="506.27" from="N_out_7s_to_J7" to="J9_to_N_out_9s" type="motorcycle" departLane="best" departSpeed="max"/>
    <trip id="motorcycle_eb_167" depart="506.96" from="N_out_1w_to_J1" to="J3_to_N_out_3e" type="motorcycle" departLane="best" departSpeed="max"/>
    <trip id="motorcycle_eb_166" depart="507.15" from="N_out_7s_to_J7" to="J9_to_N_out_9" type="motorcycle" departLane="best" departSpeed="max"/>
    <trip id="motorcycle_eb_170" depart="508.67" from="N_out_1w_to_J1" to="J9_to_N_out_9s" type="motorcycle" departLane="best" departSpeed="max"/>
    <trip id="motorcycle_eb_169" depart="508.72" from="N_out_7s_to_J7" to="J9_to_N_out_9" type="motorcycle" departLane="best" departSpeed="max"/>
    <trip id="motorcycle_eb_173" depart="510.98" from="N_out_4_to_J4" to="J9_to_N_out_9" type="motorcycle" departLane="best" departSpeed="max"/>
    <trip id="motorcycle_eb_171" depart="513.11" from="N_out_1w_to_J1" to="J9_to_N_out_9" type="motorcycle" departLane="best" departSpeed="max"/>
    <trip id="motorcycle_eb_174" depart="517.16" from="N_out_7s_to_J7" to="J3_to_N_out_3e" type="motorcycle" departLane="best" departSpeed="max"/>
    <trip id="motorcycle_eb_172" depart="517.88" from="N_out_7s_to_J7" to="J6_to_N_out_6" type="motorcycle" departLane="best" departSpeed="max"/>
    <trip id="motorcycle_eb_175" depart="519.19" from="N_out_1w_to_J1" to="J3_to_N_out_3e" type="motorcycle" departLane="best" departSpeed="max"/>
    <trip id="motorcycle_eb_176" depart="520.75" from="N_out_7s_to_J7" to="J3_to_N_out_3e" type="motorcycle" departLane="best" departSpeed="max"/>
    <trip id="motorcycle_eb_177" depart="521.06" from="N_out_7s_to_J7" to="J9_to_N_out_9" type="motorcycle" departLane="best" departSpeed="max"/>
    <trip id="motorcycle_eb_178" depart="521.70" from="N_out_4_to_J4" to="J9_to_N_out_9s" type="motorcycle" departLane="best" departSpeed="max"/>
    <trip id="motorcycle_eb_179" depart="528.96" from="N_out_4_to_J4" to="J9_to_N_out_9s" type="motorcycle" departLane="best" departSpeed="max"/>
    <trip id="motorcycle_eb_180" depart="533.38" from="N_out_4_to_J4" to="J9_to_N_out_9" type="motorcycle" departLane="best" departSpeed="max"/>
    <trip id="motorcycle_eb_181" depart="535.12" from="N_out_1w_to_J1" to="J6_to_N_out_6" type="motorcycle" departLane="best" departSpeed="max"/>
    <trip id="motorcycle_eb_182" depart="538.68" from="N_out_4_to_J4" to="J9_to_N_out_9s" type="motorcycle" departLane="best" departSpeed="max"/>
    <trip id="motorcycle_eb_184" depart="539.50" from="N_out_4_to_J4" to="J9_to_N_out_9s" type="motorcycle" departLane="best" departSpeed="max"/>
    <trip id="motorcycle_eb_185" depart="539.70" from="N_out_4_to_J4" to="J6_to_N_out_6" type="motorcycle" departLane="best" departSpeed="max"/>
    <trip id="motorcycle_eb_183" depart="540.58" from="N_out_7s_to_J7" to="J3_to_N_out_3e" type="motorcycle" departLane="best" departSpeed="max"/>
    <trip id="motorcycle_eb_186" depart="544.12" from="N_out_7s_to_J7" to="J9_to_N_out_9" type="motorcycle" departLane="best" departSpeed="max"/>
    <trip id="motorcycle_eb_187" depart="545.51" from="N_out_1w_to_J1" to="J9_to_N_out_9s" type="motorcycle" departLane="best" departSpeed="max"/>
    <trip id="motorcycle_eb_188" depart="546.29" from="N_out_4_to_J4" to="J9_to_N_out_9" type="motorcycle" departLane="best" departSpeed="max"/>
    <trip id="motorcycle_eb_189" depart="548.93" from="N_out_1w_to_J1" to="J3_to_N_out_3e" type="motorcycle" departLane="best" departSpeed="max"/>
    <trip id="motorcycle_eb_190" depart="554.79" from="N_out_7s_to_J7" to="J9_to_N_out_9" type="motorcycle" departLane="best" departSpeed="max"/>
    <trip id="motorcycle_eb_191" depart="555.86" from="N_out_1w_to_J1" to="J9_to_N_out_9" type="motorcycle" departLane="best" departSpeed="max"/>
    <trip id="motorcycle_eb_192" depart="557.85" from="N_out_4_to_J4" to="J6_to_N_out_6" type="motorcycle" departLane="best" departSpeed="max"/>
    <trip id="motorcycle_eb_193" depart="558.17" from="N_out_1w_to_J1" to="J9_to_N_out_9s" type="motorcycle" departLane="best" departSpeed="max"/>
    <trip id="motorcycle_eb_195" depart="559.31" from="N_out_4_to_J4" to="J9_to_N_out_9s" type="motorcycle" departLane="best" departSpeed="max"/>
    <trip id="motorcycle_eb_194" depart="560.36" from="N_out_4_to_J4" to="J9_to_N_out_9" type="motorcycle" departLane="best" departSpeed="max"/>
    <trip id="motorcycle_eb_196" depart="564.72" from="N_out_4_to_J4" to="J6_to_N_out_6" type="motorcycle" departLane="best" departSpeed="max"/>
    <trip id="motorcycle_eb_197" depart="569.89" from="N_out_7s_to_J7" to="J6_to_N_out_6" type="motorcycle" departLane="best" departSpeed="max"/>
    <trip id="motorcycle_eb_198" depart="575.88" from="N_out_7s_to_J7" to="J9_to_N_out_9s" type="motorcycle" departLane="best" departSpeed="max"/>
    <trip id="motorcycle_eb_199" depart="580.47" from="N_out_7s_to_J7" to="J3_to_N_out_3e" type="motorcycle" departLane="best" departSpeed="max"/>
    <trip id="motorcycle_eb_200" depart="586.21" from="N_out_4_to_J4" to="J9_to_N_out_9s" type="motorcycle" departLane="best" departSpeed="max"/>
    <trip id="motorcycle_eb_201" depart="591.40" from="N_out_7s_to_J7" to="J3_to_N_out_3e" type="motorcycle" departLane="best" departSpeed="max"/>
    <trip id="motorcycle_eb_202" depart="596.44" from="N_out_4_to_J4" to="J9_to_N_out_9" type="motorcycle" departLane="best" departSpeed="max"/>
    <trip id="motorcycle_eb_203" depart="602.11" from="N_out_4_to_J4" to="J9_to_N_out_9s" type="motorcycle" departLane="best" departSpeed="max"/>
    <trip id="motorcycle_eb_204" depart="603.49" from="N_out_7s_to_J7" to="J3_to_N_out_3e" type="motorcycle" departLane="best" departSpeed="max"/>