<?xml version="1.0" ?>
<routes xmlns:xsi="http://www.w3.org/2001/XMLSchema-instance" xsi:noNamespaceSchemaLocation="http://sumo.dlr.de/xsd/routes_file.xsd">
    <trip id="motorcycle_wb_0" depart="0.00" from="N_out_3e_to_J3" to="J1_to_N_out_1w" type="motorcycle" departLane="best" departSpeed="max"/>
    <trip id="motorcycle_wb_1" depart="3.00" from="N_out_9s_to_J9" to="J4_to_N_out_4" type="motorcycle" departLane="best" departSpeed="max"/>
    <trip id="motorcycle_wb_2" depart="5.18" from="N_out_6_to_J6" to="J4_to_N_out_4" type="motorcycle" departLane="best" departSpeed="max"/>
    <trip id="motorcycle_wb_3" depart="5.99" from="N_out_6_to_J6" to="J1_to_N_out_1w" type="motorcycle" departLane="best" departSpeed="max"/>
    <trip id="motorcycle_wb_6" depart="8.39" from="N_out_6_to_J6" to="J7_to_N_out_7" type="motorcycle" departLane="best" departSpeed="max"/>
    <trip id="motorcycle_wb_4" depart="8.43" from="N_out_9s_to_J9" to="J7_to_N_out_7" type="motorcycle" departLane="best" departSpeed="max"/>
    <trip id="motorcycle_wb_5" depart="8.88" from="N_out_9s_to_J9" to="J7_to_N_out_7s" type="motorcycle" departLane="best" departSpeed="max"/>
    <trip id="motorcycle_wb_7" depart="11.55" from="N_out_3e_to_J3" to="J4_to_N_out_4" type="motorcycle" departLane="best" departSpeed="max"/>
    <trip id="motorcycle_wb_8" depart="14.93" from="N_out_3e_to_J3" to="J7_to_N_out_7s" type="motorcycle" departLane="best" departSpeed="max"/>
    <trip id="motorcycle_wb_9" depart="17.55" from="N_out_9s_to_J9" to="J7_to_N_out_7" type="motorcycle" departLane="best" departSpeed="max"/>
    <trip id="motorcycle_wb_10" depart="18.46" from="N_out_3e_to_J3" to="J4_to_N_out_4" type="motorcycle" departLane="best" departSpeed="max"/>
    <trip id="motorcycle_wb_11" depart="21.25" from="N_out_9s_to_J9" to="J7_to_N_out_7s" type="motorcycle" departLane="best" departSpeed="max"/>
    <trip id="motorcycle_wb_12" depart="24.06" from="N_out_6_to_J6" to="J1_to_N_out_1w" type="motorcycle" departLane="best" departSpeed="max"/>
    <trip id="motorcycle_wb_13" depart="27.34" from="N_out_6_to_J6" to="J4_to_N_out_4" type="motorcycle" departLane="best" departSpeed="max"/>
    <trip id="motorcycle_wb_14" depart="29.65" from="N_out_3e_to_J3" to="J1_to_N_out_1w" type="motorcycle" departLane="best" departSpeed="max"/>
    <trip id="motorcycle_wb_15" depart="32.30" from="N_out_3e_to_J3" to="J4_to_N_out_4" type="motorcycle" departLane="best" departSpeed="max"/>
    <trip id="motorcycle_wb_16" depart="35.19" from="N_out_9s_to_J9" to="J1_to_N_out_1w" type="motorcycle" departLane="best" departSpeed="max"/>
    <trip id="motorcycle_wb_17" depart="38.49" from="N_out_9s_to_J9" to="J1_to_N_out_1w" type="motorcycle" departLane="best" departSpeed="max"/>
    <trip id="motorcycle_wb_18" depart="40.86" from="N_out_6_to_J6" to="J1_to_N_out_1w" type="motorcycle" departLane="best" departSpeed="max"/>
    <trip id="motorcycle_wb_22" depart="41.58" from="N_out_6_to_J6" to="J7_to_N_out_7s" type="motorcycle" departLane="best" departSpeed="max"/>
    <trip id="motorcycle_wb_20" depart="43.10" from="N_out_6_to_J6" to="J7_to_N_out_7s" type="motorcycle" departLane="best" departSpeed="max"/>
    <trip id="motorcycle_wb_19" depart="43.78" from="N_out_3e_to_J3" to="J7_to_N_out_7" type="motorcycle" departLane="best" departSpeed="max"/>
    <trip id="motorcycle_wb_21" depart="44.19" from="N_out_3e_to_J3" to="J7_to_N_out_7" type="motorcycle" departLane="best" departSpeed="max"/>
    <trip id="motorcycle_wb_23" depart="44.32" from="N_out_9s_to_J9" to="J7_to_N_out_7" type="motorcycle" departLane="best" departSpeed="max"/>
    <trip id="motorcycle_wb_24" depart="47.12" from="N_out_3e_to_J3" to="J7_to_N_out_7s" type="motorcycle" departLane="best" departSpeed="max"/>
    <trip id="motorcycle_wb_29" depart="47.19" from="N_out_3e_to_J3" to="J4_to_N_out_4" type="motorcycle" departLane="best" departSpeed="max"/>
    <trip id="motorcycle_wb_25" depart="47.20" from="N_out_6_to_J6" to="J7_to_N_out_7" type="motorcycle" departLane="best" departSpeed="max"/>
    <trip id="motorcycle_wb_26" depart="47.87" from="N_out_6_to_J6" to="J4_to_N_out_4" type="motorcycle" departLane="best" departSpeed="max"/>
    <trip id="motorcycle_wb_27" depart="49.54" from="N_out_6_to_J6" to="J7_to_N_out_7" type="motorcycle" departLane="best" departSpeed="max"/>
    <trip id="motorcycle_wb_30" depart="49.68" from="N_out_9s_to_J9" to="J7_to_N_out_7s" type="motorcycle" departLane="best" departSpeed="max"/>
    <trip id="motorcycle_wb_31" depart="52.83" from="N_out_3e_to_J3" to="J7_to_N_out_7" type="motorcycle" departLane="best" departSpeed="max"/>
    <trip id="motorcycle_wb_28" depart="55.29" from="N_out_3e_to_J3" to="J7_to_N_out_7" type="motorcycle" departLane="best" departSpeed="max"/>
    <trip id="motorcycle_wb_32" depart="55.90" from="N_out_9s_to_J9" to="J7_to_N_out_7s" type="motorcycle" departLane="best" departSpeed="max"/>
    <trip id="motorcycle_wb_34" depart="58.55" from="N_out_9s_to_J9" to="J1_to_N_out_1w" type="motorcycle" departLane="best" departSpeed="max"/>
    <trip id="motorcycle_wb_33" depart="58.85" from="N_out_6_to_J6" to="J4_to_N_out_4" type="motorcycle" departLane="best" departSpeed="max"/>
    <trip id="motorcycle_wb_35" depart="61.66" from="N_out_9s_to_J9" to="J4_to_N_out_4" type="motorcycle" departLane="best" departSpeed="max"/>
    <trip id="motorcycle_wb_36" depart="63.86" from="N_out_3e_to_J3" to="J4_to_N_out_4" type="motorcycle" departLane="best" departSpeed="max"/>
    <trip id="motorcycle_wb_37" depart="64.11" from="N_out_3e_to_J3" to="J7_to_N_out_7s" type="motorcycle" departLane="best" departSpeed="max"/>
    <trip id="motorcycle_wb_38" depart="64.53" from="N_out_6_to_J6" to="J4_to_N_out_4" type="motorcycle" departLane="best" departSpeed="max"/>
    <trip id="motorcycle_wb_39" depart="66.99" from="N_out_6_to_J6" to="J1_to_N_out_1w" type="motorcycle" departLane="best" departSpeed="max"/>
    <trip id="motorcycle_wb_40" depart="67.04" from="N_out_3e_to_J3" to="J1_to_N_out_1w" type="motorcycle" departLane="best" departSpeed="max"/>
    <trip id="motorcycle_wb_41" depart="67.39" from="N_out_6_to_J6" to="J1_to_N_out_1w" type="motorcycle" departLane="best" departSpeed="max"/>
    <trip id="motorcycle_wb_47" depart="69.75" from="N_out_6_to_J6" to="J4_to_N_out_4" type="motorcycle" departLane="best" departSpeed="max"/>
    <trip id="motorcycle_wb_42" depart="69.82" from="N_out_3e_to_J3" to="J7_to_N_out_7s" type="motorcycle" departLane="best" departSpeed="max"/>
    <trip id="motorcycle_wb_44" depart="71.12" from="N_out_6_to_J6" to="J4_to_N_out_4" type="motorcycle" departLane="best" departSpeed="max"/>
    <trip id="motorcycle_wb_43" depart="71.14" from="N_out_9s_to_J9" to="J7_to_N_out_7" type="motorcycle" departLane="best" departSpeed="max"/>
    <trip id="motorcycle_wb_48" depart="72.61" from="N_out_6_to_J6" to="J7_to_N_out_7s" type="motorcycle" departLane="best" departSpeed="max"/>
    <trip id="motorcycle_wb_45" depart="74.10" from="N_out_9s_to_J9" to="J1_to_N_out_1w" type="motorcycle" departLane="best" departSpeed="max"/>
    <trip id="motorcycle_wb_49" depart="75.62" from="N_out_6_to_J6" to="J7_to_N_out_7" type="motorcycle" departLane="best" departSpeed="max"/>
    <trip id="motorcycle_wb_46" depart="78.28" from="N_out_6_to_J6" to="J4_to_N_out_4" type="motorcycle" departLane="best" departSpeed="max"/>
    <trip id="motorcycle_wb_50" depart="78.79" from="N_out_6_to_J6" to="J4_to_N_out_4" type="motorcycle" departLane="best" departSpeed="max"/>
    <trip id="motorcycle_wb_51" depart="79.98" from="N_out_3e_to_J3" to="J7_to_N_out_7s" type="motorcycle" departLane="best" departSpeed="max"/>
    <trip id="motorcycle_wb_55" depart="81.18" from="N_out_6_to_J6" to="J1_to_N_out_1w" type="motorcycle" departLane="best" departSpeed="max"/>
    <trip id="motorcycle_wb_52" depart="82.48" from="N_out_3e_to_J3" to="J4_to_N_out_4" type="motorcycle" departLane="best" departSpeed="max"/>
    <trip id="motorcycle_wb_54" depart="83.27" from="N_out_9s_to_J9" to="J7_to_N_out_7s" type="motorcycle" departLane="best" departSpeed="max"/>
    <trip id="motorcycle_wb_56" depart="84.04" from="N_out_6_to_J6" to="J7_to_N_out_7s" type="motorcycle" departLane="best" departSpeed="max"/>
    <trip id="motorcycle_wb_53" depart="85.83" from="N_out_9s_to_J9" to="J4_to_N_out_4" type="motorcycle" departLane="best" departSpeed="max"/>
    <trip id="motorcycle_wb_57" depart="87.70" from="N_out_6_to_J6" to="J7_to_N_out_7" type="motorcycle" departLane="best" departSpeed="max"/>
    <trip id="motorcycle_wb_58" depart="90.49" from="N_out_6_to_J6" to="J4_to_N_out_4" type="motorcycle" departLane="best" departSpeed="max"/>
    <trip id="motorcycle_wb_59" depart="92.95" from="N_out_6_to_J6" to="J4_to_N_out_4" type="motorcycle" departLane="best" departSpeed="max"/>
    <trip id="motorcycle_wb_60" depart="96.10" from="N_out_6_to_J6" to="J7_to_N_out_7" type="motorcycle" departLane="best" departSpeed="max"/>
    <trip id="motorcycle_wb_61" depart="98.19" from="N_out_3e_to_J3" to="J4_to_N_out_4" type="motorcycle" departLane="best" departSpeed="max"/>
    <trip id="motorcycle_wb_62" depart="101.31" from="N_out_3e_to_J3" to="J7_to_N_out_7" type="motorcycle" departLane="best" departSpeed="max"/>
    <trip id="motorcycle_wb_63" depart="102.88" from="N_out_9s_to_J9" to="J7_to_N_out_7" type="motorcycle" departLane="best" departSpeed="max"/>
    <trip id="motorcycle_wb_64" depart="104.10" from="N_out_6_to_J6" to="J4_to_N_out_4" type="motorcycle" departLane="best" departSpeed="max"/>
    <trip id="motorcycle_wb_68" depart="106.40" from="N_out_6_to_J6" to="J1_to_N_out_1w" type="motorcycle" departLane="best" departSpeed="max"/>
    <trip id="motorcycle_wb_65" depart="106.59" from="N_out_6_to_J6" to="J4_to_N_out_4" type="motorcycle" departLane="best" departSpeed="max"/>
    <trip id="motorcycle_wb_67" depart="107.44" from="N_out_9s_to_J9" to="J4_to_N_out_4" type="motorcycle" departLane="best" departSpeed="max"/>
    <trip id="motorcycle_wb_66" depart="108.43" from="N_out_9s_to_J9" to="J1_to_N_out_1w" type="motorcycle" departLane="best" departSpeed="max"/>
    <trip id="motorcycle_wb_69" depart="110.15" from="N_out_9s_to_J9" to="J1_to_N_out_1w" type="motorcycle" departLane="best" departSpeed="max"/>
    <trip id="motorcycle_wb_70" depart="111.93" from="N_out_6_to_J6" to="J7_to_N_out_7" type="motorcycle" departLane="best" departSpeed="max"/>
    <trip id="motorcycle_wb_71" depart="115.28" from="N_out_3e_to_J3" to="J7_to_N_out_7s" type="motorcycle" departLane="best" departSpeed="max"/>
    <trip id="motorcycle_wb_72" depart="117.97" from="N_out_3e_to_J3" to="J1_to_N_out_1w" type="motorcycle" departLane="best" departSpeed="max"/>
    <trip id="motorcycle_wb_73" depart="120.31" from="N_out_3e_to_J3" to="J7_to_N_out_7" type="motorcycle" departLane="best" departSpeed="max"/>
    <trip id="motorcycle_wb_76" depart="120.73" from="N_out_6_to_J6" to="J7_to_N_out_7s" type="motorcycle" departLane="best" departSpeed="max"/>
    <trip id="motorcycle_wb_74" depart="121.24" from="N_out_6_to_J6" to="J4_to_N_out_4" type="motorcycle" departLane="best" departSpeed="max"/>
    <trip id="motorcycle_wb_77" depart="123.49" from="N_out_6_to_J6" to="J7_to_N_out_7s" type="motorcycle" departLane="best" departSpeed="max"/>
    <trip id="motorcycle_wb_75" depart="123.72" from="N_out_9s_to_J9" to="J4_to_N_out_4" type="motorcycle" departLane="best" departSpeed="max"/>
    <trip id="motorcycle_wb_78" depart="123.87" from="N_out_3e_to_J3" to="J7_to_N_out_7s" type="motorcycle" departLane="best" departSpeed="max"/>
    <trip id="motorcycle_wb_79" depart="124.02" from="N_out_9s_to_J9" to="J4_to_N_out_4" type="motorcycle" departLane="best" departSpeed="max"/>
    <trip id="motorcycle_wb_80" depart="126.29" from="N_out_9s_to_J9" to="J4_to_N_out_4" type="motorcycle" departLane="best" departSpeed="max"/>
    <trip id="motorcycle_wb_81" depart="128.58" from="N_out_6_to_J6" to="J4_to_N_out_4" type="motorcycle" departLane="best" departSpeed="max"/>
    <trip id="motorcycle_wb_82" depart="131.34" from="N_out_3e_to_J3" to="J1_to_N_out_1w" type="motorcycle" departLane="best" departSpeed="max"/>
    <trip id="motorcycle_wb_83" depart="134.12" from="N_out_9s_to_J9" to="J7_to_N_out_7s" type="motorcycle" departLane="best" departSpeed="max"/>
    <trip id="motorcycle_wb_84" depart="136.90" from="N_out_6_to_J6" to="J4_to_N_out_4" type="motorcycle" departLane="best" departSpeed="max"/>
    <trip id="motorcycle_wb_85" depart="140.26" from="N_out_6_to_J6" to="J4_to_N_out_4" type="motorcycle" departLane="best" departSpeed="max"/>
    <trip id="motorcycle_wb_86" depart="142.22" from="N_out_3e_to_J3" to="J1_to_N_out_1w" type="motorcycle" departLane="best" departSpeed="max"/>
    <trip id="motorcycle_wb_87" depart="145.39" from="N_out_3e_to_J3" to="J4_to_N_out_4" type="motorcycle" departLane="best" departSpeed="max"/>
    <trip id="motorcycle_wb_88" depart="148.04" from="N_out_3e_to_J3" to="J1_to_N_out_1w" type="motorcycle" departLane="best" departSpeed="max"/>
    <trip id="motorcycle_wb_89" depart="149.90" from="N_out_6_to_J6" to="J7_to_N_out_7s" type="motorcycle" departLane="best" departSpeed="max"/>
    <trip id="motorcycle_wb_91" depart="150.74" from="N_out_3e_to_J3" to="J7_to_N_out_7" type="motorcycle" departLane="best" departSpeed="max"/>
    <trip id="motorcycle_wb_90" depart="151.50" from="N_out_6_to_J6" to="J7_to_N_out_7s" type="motorcycle" departLane="best" departSpeed="max"/>
    <trip id="motorcycle_wb_92" depart="153.69" from="N_out_9s_to_J9" to="J1_to_N_out_1w" type="motorcycle" departLane="best" departSpeed="max"/>
    <trip id="motorcycle_wb_94" depart="153.78" from="N_out_3e_to_J3" to="J4_to_N_out_4" type="motorcycle" departLane="best" departSpeed="max"/>
    <trip id="motorcycle_wb_95" depart="156.14" from="N_out_3e_to_J3" to="J1_to_N_out_1w" type="motorcycle" departLane="best" departSpeed="max"/>
    <trip id="motorcycle_wb_93" depart="156.45" from="N_out_6_to_J6" to="J1_to_N_out_1w" type="motorcycle" departLane="best" departSpeed="max"/>
    <trip id="motorcycle_wb_96" depart="157.67" from="N_out_9s_to_J9" to="J4_to_N_out_4" type="motorcycle" departLane="best" departSpeed="max"/>
    <trip id="motorcycle_wb_99" depart="159.14" from="N_out_6_to_J6" to="J1_to_N_out_1w" type="motorcycle" departLane="best" departSpeed="max"/>
    <trip id="motorcycle_wb_97" depart="159.67" from="N_out_6_to_J6" to="J7_to_N_out_7" type="motorcycle" departLane="best" departSpeed="max"/>
    <trip id="motorcycle_wb_98" depart="160.47" from="N_out_3e_to_J3" to="J7_to_N_out_7s" type="motorcycle" departLane="best" departSpeed="max"/>
    <trip id="motorcycle_wb_100" depart="161.51" from="N_out_3e_to_J3" to="J4_to_N_out_4" type="motorcycle" departLane="best" departSpeed="max"/>
    <trip id="motorcycle_wb_103" depart="163.78" from="N_out_3e_to_J3" to="J1_to_N_out_1w" type="motorcycle" departLane="best" departSpeed="max"/>
    <trip id="motorcycle_wb_101" depart="164.44" from="N_out_3e_to_J3" to="J7_to_N_out_7s" type="motorcycle" departLane="best" departSpeed="max"/>
    <trip id="motorcycle_wb_102" depart="166.07" from="N_out_3e_to_J3" to="J7_to_N_out_7s" type="motorcycle" departLane="best" departSpeed="max"/>
    <trip id="motorcycle_wb_104" depart="167.38" from="N_out_6_to_J6" to="J4_to_N_out_4" type="motorcycle" departLane="best" departSpeed="max"/>
    <trip id="motorcycle_wb_105" depart="169.37" from="N_out_3e_to_J3" to="J7_to_N_out_7" type="motorcycle" departLane="best" departSpeed="max"/>
    <trip id="motorcycle_wb_106" depart="172.21" from="N_out_3e_to_J3" to="J1_to_N_out_1w" type="motorcycle" departLane="best" departSpeed="max"/>
    <trip id="motorcycle_wb_107" depart="174.86" from="N_out_9s_to_J9" to="J1_to_N_out_1w" type="motorcycle" departLane="best" departSpeed="max"/>
    <trip id="motorcycle_wb_108" depart="176.59" from="N_out_6_to_J6" to="J7_to_N_out_7s" type="motorcycle" departLane="best" departSpeed="max"/>
    <trip id="motorcycle_wb_112" depart="177.57" from="N_out_6_to_J6" to="J7_to_N_out_7" type="motorcycle" departLane="best" departSpeed="max"/>
    <trip id="motorcycle_wb_109" depart="179.35" from="N_out_9s_to_J9" to="J4_to_N_out_4" type="motorcycle" departLane="best" departSpeed="max"/>
    <trip id="motorcycle_wb_113" depart="180.04" from="N_out_9s_to_J9" to="J1_to_N_out_1w" type="motorcycle" departLane="best" departSpeed="max"/>
    <trip id="motorcycle_wb_110" depart="182.18" from="N_out_3e_to_J3" to="J7_to_N_out_7s" type="motorcycle" departLane="best" departSpeed="max"/>
    <trip id="motorcycle_wb_114" depart="182.60" from="N_out_9s_to_J9" to="J4_to_N_out_4" type="motorcycle" departLane="best" departSpeed="max"/>
    <trip id="motorcycle_wb_111" depart="184.19" from="N_out_3e_to_J3" to="J7_to_N_out_7" type="motorcycle" departLane="best" departSpeed="max"/>
    <trip id="motorcycle_wb_115" depart="185.15" from="N_out_9s_to_J9" to="J7_to_N_out_7s" type="motorcycle" departLane="best" departSpeed="max"/>
    <trip id="motorcycle_wb_116" depart="188.03" from="N_out_6_to_J6" to="J7_to_N_out_7" type="motorcycle" departLane="best" departSpeed="max"/>
    <trip id="motorcycle_wb_117" depart="191.21" from="N_out_9s_to_J9" to="J1_to_N_out_1w" type="motorcycle" departLane="best" departSpeed="max"/>
    <trip id="motorcycle_wb_118" depart="193.13" from="N_out_9s_to_J9" to="J7_to_N_out_7s" type="motorcycle" departLane="best" departSpeed="max"/>
    <trip id="motorcycle_wb_119" depart="195.98" from="N_out_6_to_J6" to="J1_to_N_out_1w" type="motorcycle" departLane="best" departSpeed="max"/>
    <trip id="motorcycle_wb_120" depart="197.27" from="N_out_6_to_J6" to="J1_to_N_out_1w" type="motorcycle" departLane="best" departSpeed="max"/>
    <trip id="motorcycle_wb_122" depart="199.00" from="N_out_9s_to_J9" to="J1_to_N_out_1w" type="motorcycle" departLane="best" departSpeed="max"/>
    <trip id="motorcycle_wb_123" depart="201.09" from="N_out_3e_to_J3" to="J1_to_N_out_1w" type="motorcycle" departLane="best" departSpeed="max"/>
    <trip id="motorcycle_wb_121" depart="201.91" from="N_out_9s_to_J9" to="J4_to_N_out_4" type="motorcycle" departLane="best" departSpeed="max"/>
    <trip id="motorcycle_wb_124" depart="203.82" from="N_out_6_to_J6" to="J7_to_N_out_7" type="motorcycle" departLane="best" departSpeed="max"/>
    <trip id="motorcycle_wb_125" depart="205.26" from="N_out_9s_to_J9" to="J7_to_N_out_7" type="motorcycle" departLane="best" departSpeed="max"/>
    <trip id="motorcycle_wb_126" depart="206.43" from="N_out_6_to_J6" to="J7_to_N_out_7" type="motorcycle" departLane="best" departSpeed="max"/>
    <trip id="motorcycle_wb_127" depart="207.70" from="N_out_3e_to_J3" to="J7_to_N_out_7s" type="motorcycle" departLane="best" departSpeed="max"/>
    <trip id="motorcycle_wb_129" depart="209.08" from="N_out_6_to_J6" to="J7_to_N_out_7" type="motorcycle" departLane="best" departSpeed="max"/>
    <trip id="motorcycle_wb_130" depart="211.89" from="N_out_9s_to_J9" to="J7_to_N_out_7s" type="motorcycle" departLane="best" departSpeed="max"/>
    <trip id="motorcycle_wb_128" depart="212.23" from="N_out_3e_to_J3" to="J7_to_N_out_7" type="motorcycle" departLane="best" departSpeed="max"/>
    <trip id="motorcycle_wb_131" depart="214.25" from="N_out_9s_to_J9" to="J1_to_N_out_1w" type="motorcycle" departLane="best" departSpeed="max"/>
    <trip id="motorcycle_wb_132" depart="216.81" from="N_out_6_to_J6" to="J7_to_N_out_7s" type="motorcycle" departLane="best" departSpeed="max"/>
    <trip id="motorcycle_wb_133" depart="218.48" from="N_out_9s_to_J9" to="J4_to_N_out_4" type="motorcycle" departLane="best" departSpeed="max"/>
    <trip id="motorcycle_wb_134" depart="219.40" from="N_out_6_to_J6" to="J1_to_N_out_1w" type="motorcycle" departLane="best" departSpeed="max"/>
    <trip id="motorcycle_wb_135" depart="220.53" from="N_out_3e_to_J3" to="J7_to_N_out_7s" type="motorcycle" departLane="best" departSpeed="max"/>
    <trip id="motorcycle_wb_137" depart="221.98" from="N_out_9s_to_J9" to="J4_to_N_out_4" type="motorcycle" departLane="best" departSpeed="max"/>
    <trip id="motorcycle_wb_136" depart="223.57" from="N_out_3e_to_J3" to="J4_to_N_out_4" type="motorcycle" departLane="best" departSpeed="max"/>
    <trip id="motorcycle_wb_142" depart="224.44" from="N_out_9s_to_J9" to="J7_to_N_out_7" type="motorcycle" departLane="best" departSpeed="max"/>
    <trip id="motorcycle_wb_138" depart="224.69" from="N_out_9s_to_J9" to="J7_to_N_out_7" type="motorcycle" departLane="best" departSpeed="max"/>
    <trip id="motorcycle_wb_139" depart="225.89" from="N_out_3e_to_J3" to="J7_to_N_out_7s" type="motorcycle" departLane="best" departSpeed="max"/>
    <trip id="motorcycle_wb_143" depart="227.48" from="N_out_6_to_J6" to="J4_to_N_out_4" type="motorcycle" departLane="best" departSpeed="max"/>
    <trip id="motorcycle_wb_140" depart="229.50" from="N_out_3e_to_J3" to="J1_to_N_out_1w" type="motorcycle" departLane="best" departSpeed="max"/>
    <trip id="motorcycle_wb_144" depart="229.79" from="N_out_9s_to_J9" to="J4_to_N_out_4" type="motorcycle" departLane="best" departSpeed="max"/>
    <trip id="motorcycle_wb_141" depart="229.88" from="N_out_3e_to_J3" to="J7_to_N_out_7" type="motorcycle" departLane="best" departSpeed="max"/>
    <trip id="motorcycle_wb_145" depart="232.26" from="N_out_3e_to_J3" to="J1_to_N_out_1w" type="motorcycle" departLane="best" departSpeed="max"/>
    <trip id="motorcycle_wb_146" depart="233.36" from="N_out_3e_to_J3" to="J7_to_N_out_7s" type="motorcycle" departLane="best" departSpeed="max"/>
    <trip id="motorcycle_wb_150" depart="234.79" from="N_out_9s_to_J9" to="J4_to_N_out_4" type="motorcycle" departLane="best" departSpeed="max"/>
    <trip id="motorcycle_wb_147" depart="235.11" from="N_out_3e_to_J3" to="J7_to_N_out_7s" type="motorcycle" departLane="best" departSpeed="max"/>
    <trip id="motorcycle_wb_151" depart="237.22" from="N_out_9s_to_J9" to="J4_to_N_out_4" type="motorcycle" departLane="best" departSpeed="max"/>
    <trip id="motorcycle_wb_148" depart="239.83" from="N_out_3e_to_J3" to="J7_to_N_out_7s" type="motorcycle" departLane="best" departSpeed="max"/>
    <trip id="motorcycle_wb_152" depart="240.08" from="N_out_6_to_J6" to="J1_to_N_out_1w" type="motorcycle" departLane="best" departSpeed="max"/>
    <trip id="motorcycle_wb_149" depart="242.28" from="N_out_3e_to_J3" to="J7_to_N_out_7s" type="motorcycle" departLane="best" departSpeed="max"/>
    <trip id="motorcycle_wb_153" depart="242.47" from="N_out_6_to_J6" to="J1_to_N_out_1w" type="motorcycle" departLane="best" departSpeed="max"/>
    <trip id="motorcycle_wb_154" depart="244.42" from="N_out_6_to_J6" to="J1_to_N_out_1w" type="motorcycle" departLane="best" departSpeed="max"/>
    <trip id="motorcycle_wb_155" depart="244.77" from="N_out_3e_to_J3" to="J1_to_N_out_1w" type="motorcycle" departLane="best" departSpeed="max"/>
    <trip id="motorcycle_wb_156" depart="248.03" from="N_out_9s_to_J9" to="J4_to_N_out_4" type="motorcycle" departLane="best" departSpeed="max"/>
    <trip id="motorcycle_wb_157" depart="249.75" from="N_out_3e_to_J3" to="J4_to_N_out_4" type="motorcycle" departLane="best" departSpeed="max"/>
    <trip id="motorcycle_wb_158" depart="253.05" from="N_out_9s_to_J9" to="J7_to_N_out_7" type="motorcycle" departLane="best" departSpeed="max"/>
    <trip id="motorcycle_wb_159" depart="255.37" from="N_out_6_to_J6" to="J1_to_N_out_1w" type="motorcycle" departLane="best" departSpeed="max"/>
    <trip id="motorcycle_wb_160" depart="257.67" from="N_out_9s_to_J9" to="J4_to_N_out_4" type="motorcycle" departLane="best" departSpeed="max"/>
    <trip id="motorcycle_wb_164" depart="260.19" from="N_out_6_to_J6" to="J7_to_N_out_7" type="motorcycle" departLane="best" departSpeed="max"/>
    <trip id="motorcycle_wb_161" depart="260.26" from="N_out_9s_to_J9" to="J4_to_N_out_4" type="motorcycle" departLane="best" departSpeed="max"/>
    <trip id="motorcycle_wb_162" depart="261.06" from="N_out_3e_to_J3" to="J7_to_N_out_7s" type="motorcycle" departLane="best" departSpeed="max"/>
    <trip id="motorcycle_wb_163" depart="261.09" from="N_out_9s_to_J9" to="J7_to_N_out_7s" type="motorcycle" departLane="best" departSpeed="max"/>
    <trip id="motorcycle_wb_169" depart="263.03" from="N_out_9s_to_J9" to="J7_to_N_out_7s" type="motorcycle" departLane="best" departSpeed="max"/>
    <trip id="motorcycle_wb_165" depart="263.11" from="N_out_9s_to_J9" to="J7_to_N_out_7" type="motorcycle" departLane="best" departSpeed="max"/>
    <trip id="motorcycle_wb_170" depart="264.96" from="N_out_6_to_J6" to="J7_to_N_out_7s" type="motorcycle" departLane="best" departSpeed="max"/>
    <trip id="motorcycle_wb_166" depart="265.02" from="N_out_3e_to_J3" to="J1_to_N_out_1w" type="motorcycle" departLane="best" departSpeed="max"/>
    <trip id="motorcycle_wb_171" depart="267.47" from="N_out_3e_to_J3" to="J7_to_N_out_7" type="motorcycle" departLane="best" departSpeed="max"/>
    <trip id="motorcycle_wb_167" depart="267.59" from="N_out_9s_to_J9" to="J7_to_N_out_7s" type="motorcycle" departLane="best" departSpeed="max"/>
    <trip id="motorcycle_wb_168" depart="269.12" from="N_out_9s_to_J9" to="J7_to_N_out_7" type="motorcycle" departLane="best" departSpeed="max"/>
    <trip id="motorcycle_wb_172" depart="270.22" from="N_out_3e_to_J3" to="J1_to_N_out_1w" type="motorcycle" departLane="best" departSpeed="max"/>
    <trip id="motorcycle_wb_173" depart="272.58" from="N_out_3e_to_J3" to="J7_to_N_out_7s" type="motorcycle" departLane="best" departSpeed="max"/>
    <trip id="motorcycle_wb_174" depart="275.22" from="N_out_3e_to_J3" to="J4_to_N_out_4" type="motorcycle" departLane="best" departSpeed="max"/>
    <trip id="motorcycle_wb_175" depart="277.26" from="N_out_6_to_J6" to="J4_to_N_out_4" type="motorcycle" departLane="best" departSpeed="max"/>
    <trip id="motorcycle_wb_180" depart="277.72" from="N_out_9s_to_J9" to="J7_to_N_out_7s" type="motorcycle" departLane="best" departSpeed="max"/>
    <trip id="motorcycle_wb_176" depart="278.19" from="N_out_3e_to_J3" to="J7_to_N_out_7" type="motorcycle" departLane="best" departSpeed="max"/>
    <trip id="motorcycle_wb_181" depart="279.66" from="N_out_9s_to_J9" to="J7_to_N_out_7s" type="motorcycle" departLane="best" departSpeed="max"/>
    <trip id="motorcycle_wb_183" depart="280.16" from="N_out_3e_to_J3" to="J7_to_N_out_7s" type="motorcycle" departLane="best" departSpeed="max"/>
    <trip id="motorcycle_wb_182" depart="281.42" from="N_out_9s_to_J9" to="J7_to_N_out_7s" type="motorcycle" departLane="best" departSpeed="max"/>
    <trip id="motorcycle_wb_177" depart="281.55" from="N_out_6_to_J6" to="J7_to_N_out_7" type="motorcycle" departLane="best" departSpeed="max"/>
    <trip id="motorcycle_wb_184" depart="282.69" from="N_out_9s_to_J9" to="J1_to_N_out_1w" type="motorcycle" departLane="best" departSpeed="max"/>
    <trip id="motorcycle_wb_185" depart="284.07" from="N_out_9s_to_J9" to="J7_to_N_out_7" type="motorcycle" departLane="best" departSpeed="max"/>
    <trip id="motorcycle_wb_178" depart="284.39" from="N_out_3e_to_J3" to="J7_to_N_out_7" type="motorcycle" departLane="best" departSpeed="max"/>
    <trip id="motorcycle_wb_187" depart="285.50" from="N_out_3e_to_J3" to="J1_to_N_out_1w" type="motorcycle" departLane="best" departSpeed="max"/>
    <trip id="motorcycle_wb_186" depart="285.79" from="N_out_9s_to_J9" to="J7_to_N_out_7s" type="motorcycle" departLane="best" departSpeed="max"/>
    <trip id="motorcycle_wb_188" depart="287.45" from="N_out_9s_to_J9" to="J1_to_N_out_1w" type="motorcycle" departLane="best" departSpeed="max"/>
    <trip id="motorcycle_wb_179" depart="288.15" from="N_out_6_to_J6" to="J7_to_N_out_7s" type="motorcycle" departLane="best" departSpeed="max"/>
    <trip id="motorcycle_wb_189" depart="290.12" from="N_out_9s_to_J9" to="J1_to_N_out_1w" type="motorcycle" departLane="best" departSpeed="max"/>
    <trip id="motorcycle_wb_190" depart="292.39" from="N_out_3e_to_J3" to="J4_to_N_out_4" type="motorcycle" departLane="best" departSpeed="max"/>
    <trip id="motorcycle_wb_191" depart="292.66" from="N_out_3e_to_J3" to="J7_to_N_out_7" type="motorcycle" departLane="best" departSpeed="max"/>
    <trip id="motorcycle_wb_192" depart="294.74" from="N_out_6_to_J6" to="J7_to_N_out_7s" type="motorcycle" departLane="best" departSpeed="max"/>
    <trip id="motorcycle_wb_193" depart="297.49" from="N_out_6_to_J6" to="J7_to_N_out_7" type="motorcycle" departLane="best" departSpeed="max"/>
    <trip id="motorcycle_wb_194" depart="300.05" from="N_out_9s_to_J9" to="J4_to_N_out_4" type="motorcycle" departLane="best" departSpeed="max"/>
    <trip id="motorcycle_wb_195" depart="302.43" from="N_out_6_to_J6" to="J1_to_N_out_1w" type="motorcycle" departLane="best" departSpeed="max"/>
    <trip id="motorcycle_wb_196" depart="303.67" from="N_out_3e_to_J3" to="J1_to_N_out_1w" type="motorcycle" departLane="best" departSpeed="max"/>
    <trip id="motorcycle_wb_201" depart="304.59" from="N_out_6_to_J6" to="J7_to_N_out_7s" type="motorcycle" departLane="best" departSpeed="max"/>
    <trip id="motorcycle_wb_202" depart="306.99" from="N_out_6_to_J6" to="J4_to_N_out_4" type="motorcycle" departLane="best" departSpeed="max"/>
    <trip id="motorcycle_wb_197" depart="307.53" from="N_out_3e_to_J3" to="J7_to_N_out_7" type="motorcycle" departLane="best" departSpeed="max"/>
    <trip id="motorcycle_wb_199" depart="308.87" from="N_out_9s_to_J9" to="J4_to_N_out_4" type="motorcycle" departLane="best" departSpeed="max"/>
    <trip id="motorcycle_wb_203" depart="309.77" from="N_out_9s_to_J9" to="J7_to_N_out_7" type="motorcycle" departLane="best" departSpeed="max"/>
    <trip id="motorcycle_wb_198" depart="310.88" from="N_out_3e_to_J3" to="J7_to_N_out_7" type="motorcycle" departLane="best" departSpeed="max"/>
    <trip id="motorcycle_wb_204" depart="311.35" from="N_out_6_to_J6" to="J7_to_N_out_7s" type="motorcycle" departLane="best" departSpeed="max"/>
    <trip id="motorcycle_wb_208" depart="312.25" from="N_out_9s_to_J9" to="J1_to_N_out_1w" type="motorcycle" departLane="best" departSpeed="max"/>