<?xml version="1.0" ?>
<routes xmlns:xsi="http://www.w3.org/2001/XMLSchema-instance" xsi:noNamespaceSchemaLocation="http://sumo.dlr.de/xsd/routes_file.xsd">
    <trip id="motorcycle_ns_0" depart="0.17" from="N_out_1_to_J1" to="J2_to_N_out_2" type="motorcycle" departLane="best" departSpeed="max"/>
    <trip id="motorcycle_ns_1" depart="9.16" from="N_out_2_to_J2" to="J1_to_N_out_1" type="motorcycle" departLane="best" departSpeed="max"/>
    <trip id="motorcycle_ns_2" depart="18.35" from="N_out_8_to_J8" to="J9_to_N_out_9" type="motorcycle" departLane="best" departSpeed="max"/>
    <trip id="motorcycle_ns_3" depart="30.54" from="N_out_7_to_J7" to="J8_to_N_out_8" type="motorcycle" departLane="best" departSpeed="max"/>
    <trip id="motorcycle_ns_4" depart="40.31" from="N_out_3_to_J3" to="J3_to_N_out_3" type="motorcycle" departLane="best" departSpeed="max"/>
    <trip id="motorcycle_ns_5" depart="49.28" from="N_out_1_to_J1" to="J8_to_N_out_8" type="motorcycle" departLane="best" departSpeed="max"/>
    <trip id="motorcycle_ns_6" depart="50.42" from="N_out_1_to_J1" to="J3_to_N_out_3" type="motorcycle" departLane="best" departSpeed="max"/>
    <trip id="motorcycle_ns_7" depart="55.12" from="N_out_1_to_J1" to="J9_to_N_out_9" type="motorcycle" departLane="best" departSpeed="max"/>
    <trip id="motorcycle_ns_8" depart="57.21" from="N_out_3_to_J3" to="J1_to_N_out_1" type="motorcycle" departLane="best" departSpeed="max"/>
    <trip id="motorcycle_ns_9" depart="57.38" from="N_out_7_to_J7" to="J2_to_N_out_2" type="motorcycle" departLane="best" departSpeed="max"/>
    <trip id="motorcycle_ns_10" depart="68.51" from="N_out_1_to_J1" to="J1_to_N_out_1" type="motorcycle" departLane="best" departSpeed="max"/>
    <trip id="motorcycle_ns_11" depart="70.86" from="N_out_9_to_J9" to="J7_to_N_out_7" type="motorcycle" departLane="best" departSpeed="max"/>
    <trip id="motorcycle_ns_12" depart="73.35" from="N_out_9_to_J9" to="J9_to_N_out_9" type="motorcycle" departLane="best" departSpeed="max"/>
    <trip id="motorcycle_ns_13" depart="75.68" from="N_out_9_to_J9" to="J3_to_N_out_3" type="motorcycle" departLane="best" departSpeed="max"/>
    <trip id="motorcycle_ns_14" depart="77.92" from="N_out_7_to_J7" to="J8_to_N_out_8" type="motorcycle" departLane="best" departSpeed="max"/>
    <trip id="motorcycle_ns_15" depart="86.17" from="N_out_7_to_J7" to="J7_to_N_out_7" type="motorcycle" departLane="best" departSpeed="max"/>
    <trip id="motorcycle_ns_16" depart="97.76" from="N_out_3_to_J3" to="J8_to_N_out_8" type="motorcycle" departLane="best" departSpeed="max"/>
    <trip id="motorcycle_ns_17" depart="107.46" from="N_out_1_to_J1" to="J3_to_N_out_3" type="motorcycle" departLane="best" departSpeed="max"/>
    <trip id="motorcycle_ns_18" depart="115.47" from="N_out_8_to_J8" to="J8_to_N_out_8" type="motorcycle" departLane="best" departSpeed="max"/>
    <trip id="motorcycle_ns_19" depart="117.77" from="N_out_8_to_J8" to="J3_to_N_out_3" type="motorcycle" departLane="best" departSpeed="max"/>
    <trip id="motorcycle_ns_20" depart="121.45" from="N_out_3_to_J3" to="J8_to_N_out_8" type="motorcycle" departLane="best" departSpeed="max"/>
    <trip id="motorcycle_ns_21" depart="124.69" from="N_out_1_to_J1" to="J2_to_N_out_2" type="motorcycle" departLane="best" departSpeed="max"/>
    <trip id="motorcycle_ns_22" depart="126.90" from="N_out_1_to_J1" to="J7_to_N_out_7" type="motorcycle" departLane="best" departSpeed="max"/>
    <trip id="motorcycle_ns_23" depart="134.48" from="N_out_7_to_J7" to="J1_to_N_out_1" type="motorcycle" departLane="best" departSpeed="max"/>
    <trip id="motorcycle_ns_24" depart="142.94" from="N_out_3_to_J3" to="J9_to_N_out_9" type="motorcycle" departLane="best" departSpeed="max"/>
    <trip id="motorcycle_ns_25" depart="144.06" from="N_out_1_to_J1" to="J1_to_N_out_1" type="motorcycle" departLane="best" departSpeed="max"/>
    <trip id="motorcycle_ns_26" depart="150.82" from="N_out_8_to_J8" to="J9_to_N_out_9" type="motorcycle" departLane="best" departSpeed="max"/>
    <trip id="motorcycle_ns_27" depart="162.25" from="N_out_1_to_J1" to="J3_to_N_out_3" type="motorcycle" departLane="best" departSpeed="max"/>
    <trip id="motorcycle_ns_28" depart="171.60" from="N_out_1_to_J1" to="J8_to_N_out_8" type="motorcycle" departLane="best" departSpeed="max"/>
    <trip id="motorcycle_ns_29" depart="179.80" from="N_out_3_to_J3" to="J8_to_N_out_8" type="motorcycle" departLane="best" departSpeed="max"/>
    <trip id="motorcycle_ns_30" depart="186.09" from="N_out_7_to_J7" to="J3_to_N_out_3" type="motorcycle" departLane="best" departSpeed="max"/>
    <trip id="motorcycle_ns_31" depart="195.70" from="N_out_7_to_J7" to="J1_to_N_out_1" type="motorcycle" departLane="best" departSpeed="max"/>
    <trip id="motorcycle_ns_32" depart="203.85" from="N_out_2_to_J2" to="J9_to_N_out_9" type="motorcycle" departLane="best" departSpeed="max"/>
    <trip id="motorcycle_ns_33" depart="213.81" from="N_out_3_to_J3" to="J7_to_N_out_7" type="motorcycle" departLane="best" departSpeed="max"/>
    <trip id="motorcycle_ns_34" depart="214.98" from="N_out_8_to_J8" to="J2_to_N_out_2" type="motorcycle" departLane="best" departSpeed="max"/>
    <trip id="motorcycle_ns_35" depart="216.92" from="N_out_8_to_J8" to="J8_to_N_out_8" type="motorcycle" departLane="best" departSpeed="max"/>
    <trip id="motorcycle_ns_36" depart="221.76" from="N_out_2_to_J2" to="J1_to_N_out_1" type="motorcycle" departLane="best" departSpeed="max"/>
    <trip id="motorcycle_ns_38" depart="222.44" from="N_out_9_to_J9" to="J2_to_N_out_2" type="motorcycle" departLane="best" departSpeed="max"/>
    <trip id="motorcycle_ns_37" depart="223.42" from="N_out_8_to_J8" to="J7_to_N_out_7" type="motorcycle" departLane="best" departSpeed="max"/>
    <trip id="motorcycle_ns_40" depart="224.97" from="N_out_8_to_J8" to="J3_to_N_out_3" type="motorcycle" departLane="best" departSpeed="max"/>
    <trip id="motorcycle_ns_39" depart="225.42" from="N_out_7_to_J7" to="J3_to_N_out_3" type="motorcycle" departLane="best" departSpeed="max"/>
    <trip id="motorcycle_ns_41" depart="228.60" from="N_out_3_to_J3" to="J3_to_N_out_3" type="motorcycle" departLane="best" departSpeed="max"/>
    <trip id="motorcycle_ns_42" depart="229.81" from="N_out_1_to_J1" to="J1_to_N_out_1" type="motorcycle" departLane="best" departSpeed="max"/>
    <trip id="motorcycle_ns_43" depart="239.24" from="N_out_9_to_J9" to="J9_to_N_out_9" type="motorcycle" departLane="best" departSpeed="max"/>
    <trip id="motorcycle_ns_44" depart="247.73" from="N_out_8_to_J8" to="J9_to_N_out_9" type="motorcycle" departLane="best" departSpeed="max"/>
    <trip id="motorcycle_ns_45" depart="257.13" from="N_out_7_to_J7" to="J2_to_N_out_2" type="motorcycle" departLane="best" departSpeed="max"/>
    <trip id="motorcycle_ns_46" depart="264.91" from="N_out_1_to_J1" to="J3_to_N_out_3" type="motorcycle" departLane="best" departSpeed="max"/>
    <trip id="motorcycle_ns_47" depart="266.53" from="N_out_8_to_J8" to="J9_to_N_out_9" type="motorcycle" departLane="best" departSpeed="max"/>
    <trip id="motorcycle_ns_48" depart="267.76" from="N_out_2_to_J2" to="J2_to_N_out_2" type="motorcycle" departLane="best" departSpeed="max"/>
    <trip id="motorcycle_ns_49" depart="273.27" from="N_out_1_to_J1" to="J7_to_N_out_7" type="motorcycle" departLane="best" departSpeed="max"/>
    <trip id="motorcycle_ns_50" depart="275.33" from="N_out_1_to_J1" to="J9_to_N_out_9" type="motorcycle" departLane="best" departSpeed="max"/>
    <trip id="motorcycle_ns_51" depart="281.26" from="N_out_3_to_J3" to="J9_to_N_out_9" type="motorcycle" departLane="best" departSpeed="max"/>
    <trip id="motorcycle_ns_52" depart="289.86" from="N_out_8_to_J8" to="J3_to_N_out_3" type="motorcycle" departLane="best" departSpeed="max"/>
    <trip id="motorcycle_ns_53" depart="292.81" from="N_out_8_to_J8" to="J3_to_N_out_3" type="motorcycle" departLane="best" departSpeed="max"/>
    <trip id="motorcycle_ns_54" depart="298.09" from="N_out_1_to_J1" to="J2_to_N_out_2" type="motorcycle" departLane="best" departSpeed="max"/>
    <trip id="motorcycle_ns_55" depart="299.24" from="N_out_8_to_J8" to="J1_to_N_out_1" type="motorcycle" departLane="best" departSpeed="max"/>
    <trip id="motorcycle_ns_56" depart="303.52" from="N_out_2_to_J2" to="J7_to_N_out_7" type="motorcycle" departLane="best" departSpeed="max"/>
    <trip id="motorcycle_ns_57" depart="305.54" from="N_out_7_to_J7" to="J3_to_N_out_3" type="motorcycle" departLane="best" departSpeed="max"/>
    <trip id="motorcycle_ns_58" depart="314.43" from="N_out_3_to_J3" to="J3_to_N_out_3" type="motorcycle" departLane="best" departSpeed="max"/>
    <trip id="motorcycle_ns_59" depart="316.98" from="N_out_2_to_J2" to="J9_to_N_out_9" type="motorcycle" departLane="best" departSpeed="max"/>
    <trip id="motorcycle_ns_61" depart="319.14" from="N_out_7_to_J7" to="J7_to_N_out_7" type="motorcycle" departLane="best" departSpeed="max"/>
    <trip id="motorcycle_ns_60" depart="320.22" from="N_out_7_to_J7" to="J2_to_N_out_2" type="motorcycle" departLane="best" departSpeed="max"/>
    <trip id="motorcycle_ns_62" depart="322.54" from="N_out_7_to_J7" to="J7_to_N_out_7" type="motorcycle" departLane="best" departSpeed="max"/>
    <trip id="motorcycle_ns_64" depart="324.99" from="N_out_9_to_J9" to="J3_to_N_out_3" type="motorcycle" departLane="best" departSpeed="max"/>
    <trip id="motorcycle_ns_63" depart="325.53" from="N_out_7_to_J7" to="J7_to_N_out_7" type="motorcycle" departLane="best" departSpeed="max"/>
    <trip id="motorcycle_ns_65" depart="329.05" from="N_out_3_to_J3" to="J2_to_N_out_2" type="motorcycle" departLane="best" departSpeed="max"/>
    <trip id="motorcycle_ns_66" depart="331.07" from="N_out_2_to_J2" to="J3_to_N_out_3" type="motorcycle" departLane="best" departSpeed="max"/>
    <trip id="motorcycle_ns_67" depart="338.65" from="N_out_3_to_J3" to="J1_to_N_out_1" type="motorcycle" departLane="best" departSpeed="max"/>
    <trip id="motorcycle_ns_68" depart="341.64" from="N_out_8_to_J8" to="J9_to_N_out_9" type="motorcycle" departLane="best" departSpeed="max"/>
    <trip id="motorcycle_ns_69" depart="342.40" from="N_out_1_to_J1" to="J2_to_N_out_2" type="motorcycle" departLane="best" departSpeed="max"/>
    <trip id="motorcycle_ns_70" depart="346.01" from="N_out_2_to_J2" to="J9_to_N_out_9" type="motorcycle" departLane="best" departSpeed="max"/>
    <trip id="motorcycle_ns_71" depart="354.60" from="N_out_9_to_J9" to="J3_to_N_out_3" type="motorcycle" departLane="best" departSpeed="max"/>
    <trip id="motorcycle_ns_72" depart="356.49" from="N_out_1_to_J1" to="J8_to_N_out_8" type="motorcycle" departLane="best" departSpeed="max"/>
    <trip id="motorcycle_ns_73" depart="358.96" from="N_out_3_to_J3" to="J2_to_N_out_2" type="motorcycle" departLane="best" departSpeed="max"/>
    <trip id="motorcycle_ns_75" depart="360.97" from="N_out_3_to_J3" to="J2_to_N_out_2" type="motorcycle" departLane="best" departSpeed="max"/>
    <trip id="motorcycle_ns_74" depart="361.51" from="N_out_8_to_J8" to="J3_to_N_out_3" type="motorcycle" departLane="best" departSpeed="max"/>
    <trip id="motorcycle_ns_76" depart="370.40" from="N_out_9_to_J9" to="J1_to_N_out_1" type="motorcycle" departLane="best" departSpeed="max"/>
    <trip id="motorcycle_ns_77" depart="372.02" from="N_out_1_to_J1" to="J2_to_N_out_2" type="motorcycle" departLane="best" departSpeed="max"/>
    <trip id="motorcycle_ns_78" depart="374.16" from="N_out_1_to_J1" to="J2_to_N_out_2" type="motorcycle" departLane="best" departSpeed="max"/>
    <trip id="motorcycle_ns_79" depart="376.59" from="N_out_3_to_J3" to="J1_to_N_out_1" type="motorcycle" departLane="best" departSpeed="max"/>
    <trip id="motorcycle_ns_81" depart="378.25" from="N_out_7_to_J7" to="J1_to_N_out_1" type="motorcycle" departLane="best" departSpeed="max"/>
    <trip id="motorcycle_ns_82" depart="381.14" from="N_out_3_to_J3" to="J7_to_N_out_7" type="motorcycle" departLane="best" departSpeed="max"/>
    <trip id="motorcycle_ns_83" depart="381.16" from="N_out_9_to_J9" to="J8_to_N_out_8" type="motorcycle" departLane="best" departSpeed="max"/>
    <trip id="motorcycle_ns_80" depart="382.10" from="N_out_1_to_J1" to="J1_to_N_out_1" type="motorcycle" departLane="best" departSpeed="max"/>
    <trip id="motorcycle_ns_84" depart="384.17" from="N_out_1_to_J1" to="J1_to_N_out_1" type="motorcycle" departLane="best" departSpeed="max"/>
    <trip id="motorcycle_ns_85" depart="387.08" from="N_out_8_to_J8" to="J9_to_N_out_9" type="motorcycle" departLane="best" departSpeed="max"/>
    <trip id="motorcycle_ns_86" depart="393.84" from="N_out_8_to_J8" to="J8_to_N_out_8" type="motorcycle" departLane="best" departSpeed="max"/>
    <trip id="motorcycle_ns_87" depart="395.70" from="N_out_9_to_J9" to="J1_to_N_out_1" type="motorcycle" departLane="best" departSpeed="max"/>
    <trip id="motorcycle_ns_88" depart="397.39" from="N_out_8_to_J8" to="J8_to_N_out_8" type="motorcycle" departLane="best" departSpeed="max"/>
    <trip id="motorcycle_ns_89" depart="402.89" from="N_out_1_to_J1" to="J8_to_N_out_8" type="motorcycle" departLane="best" departSpeed="max"/>
    <trip id="motorcycle_ns_90" depart="409.74" from="N_out_2_to_J2" to="J2_to_N_out_2" type="motorcycle" departLane="best" departSpeed="max"/>
    <trip id="motorcycle_ns_91" depart="416.96" from="N_out_8_to_J8" to="J3_to_N_out_3" type="motorcycle" departLane="best" departSpeed="max"/>
    <trip id="motorcycle_ns_92" depart="418.13" from="N_out_8_to_J8" to="J7_to_N_out_7" type="motorcycle" departLane="best" departSpeed="max"/>
    <trip id="motorcycle_ns_94" depart="421.14" from="N_out_1_to_J1" to="J9_to_N_out_9" type="motorcycle" departLane="best" departSpeed="max"/>
    <trip id="motorcycle_ns_93" depart="421.74" from="N_out_1_to_J1" to="J3_to_N_out_3" type="motorcycle" departLane="best" departSpeed="max"/>
    <trip id="motorcycle_ns_95" depart="424.30" from="N_out_1_to_J1" to="J7_to_N_out_7" type="motorcycle" departLane="best" departSpeed="max"/>
    <trip id="motorcycle_ns_96" depart="432.21" from="N_out_3_to_J3" to="J7_to_N_out_7" type="motorcycle" departLane="best" departSpeed="max"/>
    <trip id="motorcycle_ns_97" depart="433.88" from="N_out_3_to_J3" to="J1_to_N_out_1" type="motorcycle" departLane="best" departSpeed="max"/>
    <trip id="motorcycle_ns_98" depart="435.77" from="N_out_7_to_J7" to="J9_to_N_out_9" type="motorcycle" departLane="best" departSpeed="max"/>
    <trip id="motorcycle_ns_99" depart="439.06" from="N_out_3_to_J3" to="J2_to_N_out_2" type="motorcycle" departLane="best" departSpeed="max"/>
    <trip id="motorcycle_ns_100" depart="447.27" from="N_out_7_to_J7" to="J9_to_N_out_9" type="motorcycle" departLane="best" departSpeed="max"/>
    <trip id="motorcycle_ns_101" depart="453.66" from="N_out_3_to_J3" to="J3_to_N_out_3" type="motorcycle" departLane="best" departSpeed="max"/>
    <trip id="motorcycle_ns_102" depart="462.32" from="N_out_8_to_J8" to="J2_to_N_out_2" type="motorcycle" departLane="best" departSpeed="max"/>
    <trip id="motorcycle_ns_103" depart="464.23" from="N_out_8_to_J8" to="J1_to_N_out_1" type="motorcycle" departLane="best" departSpeed="max"/>
    <trip id="motorcycle_ns_105" depart="466.75" from="N_out_9_to_J9" to="J2_to_N_out_2" type="motorcycle" departLane="best" departSpeed="max"/>
    <trip id="motorcycle_ns_104" depart="468.27" from="N_out_7_to_J7" to="J3_to_N_out_3" type="motorcycle" departLane="best" departSpeed="max"/>
    <trip id="motorcycle_ns_106" depart="469.10" from="N_out_1_to_J1" to="J8_to_N_out_8" type="motorcycle" departLane="best" departSpeed="max"/>
    <trip id="motorcycle_ns_107" depart="477.18" from="N_out_8_to_J8" to="J2_to_N_out_2" type="motorcycle" departLane="best" departSpeed="max"/>
    <trip id="motorcycle_ns_108" depart="479.39" from="N_out_2_to_J2" to="J9_to_N_out_9" type="motorcycle" departLane="best" departSpeed="max"/>
    <trip id="motorcycle_ns_109" depart="481.32" from="N_out_2_to_J2" to="J7_to_N_out_7" type="motorcycle" departLane="best" departSpeed="max"/>
    <trip id="motorcycle_ns_111" depart="483.78" from="N_out_7_to_J7" to="J3_to_N_out_3" type="motorcycle" departLane="best" departSpeed="max"/>
    <trip id="motorcycle_ns_112" depart="485.67" from="N_out_8_to_J8" to="J7_to_N_out_7" type="motorcycle" departLane="best" departSpeed="max"/>
    <trip id="motorcycle_ns_110" depart="486.08" from="N_out_3_to_J3" to="J8_to_N_out_8" type="motorcycle" departLane="best" departSpeed="max"/>
    <trip id="motorcycle_ns_113" depart="490.59" from="N_out_3_to_J3" to="J1_to_N_out_1" type="motorcycle" departLane="best" departSpeed="max"/>
    <trip id="motorcycle_ns_114" depart="500.07" from="N_out_8_to_J8" to="J3_to_N_out_3" type="motorcycle" departLane="best" departSpeed="max"/>
    <trip id="motorcycle_ns_115" depart="507.30" from="N_out_8_to_J8" to="J9_to_N_out_9" type="motorcycle" departLane="best" departSpeed="max"/>
    <trip id="motorcycle_ns_116" depart="514.97" from="N_out_7_to_J7" to="J3_to_N_out_3" type="motorcycle" departLane="best" departSpeed="max"/>
    <trip id="motorcycle_ns_117" depart="520.09" from="N_out_2_to_J2" to="J3_to_N_out_3" type="motorcycle" departLane="best" departSpeed="max"/>
    <trip id="motorcycle_ns_118" depart="528.71" from="N_out_7_to_J7" to="J1_to_N_out_1" type="motorcycle" departLane="best" departSpeed="max"/>
    <trip id="motorcycle_ns_119" depart="535.61" from="N_out_1_to_J1" to="J3_to_N_out_3" type="motorcycle" departLane="best" departSpeed="max"/>
    <trip id="motorcycle_ns_120" depart="543.04" from="N_out_3_to_J3" to="J1_to_N_out_1" type="motorcycle" departLane="best" departSpeed="max"/>
    <trip id="motorcycle_ns_121" depart="549.77" from="N_out_3_to_J3" to="J2_to_N_out_2" type="motorcycle" departLane="best" departSpeed="max"/>
    <trip id="motorcycle_ns_122" depart="551.38" from="N_out_1_to_J1" to="J2_to_N_out_2" type="motorcycle" departLane="best" departSpeed="max"/>
    <trip id="motorcycle_ns_123" depart="553.17" from="N_out_7_to_J7" to="J3_to_N_out_3" type="motorcycle" departLane="best" departSpeed="max"/>
    <trip id="motorcycle_ns_125" depart="553.89" from="N_out_2_to_J2" to="J1_to_N_out_1" type="motorcycle" departLane="best" departSpeed="max"/>
    <trip id="motorcycle_ns_124" depart="555.36" from="N_out_1_to_J1" to="J3_to_N_out_3" type="motorcycle" departLane="best" departSpeed="max"/>
    <trip id="motorcycle_ns_126" depart="556.79" from="N_out_7_to_J7" to="J8_to_N_out_8" type="motorcycle" departLane="best" departSpeed="max"/>
    <trip id="motorcycle_ns_127" depart="563.08" from="N_out_9_to_J9" to="J3_to_N_out_3" type="motorcycle" departLane="best" departSpeed="max"/>
    <trip id="motorcycle_ns_128" depart="571.79" from="N_out_2_to_J2" to="J3_to_N_out_3" type="motorcycle" departLane="best" departSpeed="max"/>
    <trip id="motorcycle_ns_129" depart="577.98" from="N_out_8_to_J8" to="J7_to_N_out_7" type="motorcycle" departLane="best" departSpeed="max"/>
    <trip id="motorcycle_ns_130" depart="585.04" from="N_out_7_to_J7" to="J3_to_N_out_3" type="motorcycle" departLane="best" departSpeed="max"/>
    <trip id="motorcycle_ns_131" depart="586.07" from="N_out_8_to_J8" to="J7_to_N_out_7" type="motorcycle" departLane="best" departSpeed="max"/>
    <trip id="motorcycle_ns_132" depart="587.44" from="N_out_2_to_J2" to="J8_to_N_out_8" type="motorcycle" departLane="best" departSpeed="max"/>
    <trip id="motorcycle_ns_133" depart="590.95" from="N_out_3_to_J3" to="J1_to_N_out_1" type="motorcycle" departLane="best" departSpeed="max"/>
    <trip id="motorcycle_ns_134" depart="600.27" from="N_out_2_to_J2" to="J8_to_N_out_8" type="motorcycle" departLane="best" departSpeed="max"/>
    <trip id="motorcycle_ns_135" depart="605.89" from="N_out_2_to_J2" to="J2_to_N_out_2" type="motorcycle" departLane="best" departSpeed="max"/>
    <trip id="motorcycle_ns_136" depart="607.40" from="N_out_1_to_J1" to="J7_to_N_out_7" type="motorcycle" departLane="best" departSpeed="max"/>
    <trip id="motorcycle_ns_137" depart="611.58" from="N_out_2_to_J2" to="J8_to_N_out_8" type="motorcycle" departLane="best" departSpeed="max"/>
    <trip id="motorcycle_ns_138" depart="621.03" from="N_out_8_to_J8" to="J2_to_N_out_2" type="motorcycle" departLane="best" departSpeed="max"/>
    <trip id="motorcycle_ns_139" depart="625.21" from="N_out_2_to_J2" to="J1_to_N_out_1" type="motorcycle" departLane="best" departSpeed="max"/>
    <trip id="motorcycle_ns_140" depart="633.27" from="N_out_8_to_J8" to="J9_to_N_out_9" type="motorcycle" departLane="best" departSpeed="max"/>
    <trip id="motorcycle_ns_141" depart="639.37" from="N_out_3_to_J3" to="J2_to_N_out_2" type="motorcycle" departLane="best" departSpeed="max"/>
    <trip id="motorcycle_ns_142" depart="647.79" from="N_out_9_to_J9" to="J1_to_N_out_1" type="motorcycle" departLane="best" departSpeed="max"/>
    <trip id="motorcycle_ns_143" depart="652.49" from="N_out_2_to_J2" to="J3_to_N_out_3" type="motorcycle" departLane="best" departSpeed="max"/>
    <trip id="motorcycle_ns_144" depart="660.22" from="N_out_9_to_J9" to="J7_to_N_out_7" type="motorcycle" departLane="best" departSpeed="max"/>
    <trip id="motorcycle_ns_145" depart="667.29" from="N_out_1_to_J1" to="J7_to_N_out_7" type="motorcycle" departLane="best" departSpeed="max"/>
    <trip id="motorcycle_ns_146" depart="673.85" from="N_out_3_to_J3" to="J3_to_N_out_3" type="motorcycle" departLane="best" departSpeed="max"/>
    <trip id="motorcycle_ns_147" depart="676.31" from="N_out_2_to_J2" to="J1_to_N_out_1" type="motorcycle" departLane="best" departSpeed="max"/>
    <trip id="motorcycle_ns_148" depart="678.08" from="N_out_9_to_J9" to="J9_to_N_out_9" type="motorcycle" departLane="best" departSpeed="max"/>
    <trip id="motorcycle_ns_149" depart="680.52" from="N_out_7_to_J7" to="J7_to_N_out_7" type="motorcycle" departLane="best" departSpeed="max"/>
    <trip id="motorcycle_ns_150" depart="683.49" from="N_out_7_to_J7" to="J2_to_N_out_2" type="motorcycle" departLane="best" departSpeed="max"/>
    <trip id="motorcycle_ns_151" depart="685.51" from="N_out_7_to_J7" to="J9_to_N_out_9" type="motorcycle" departLane="best" departSpeed="max"/>
    <trip id="motorcycle_ns_154" depart="687.17" from="N_out_9_to_J9" to="J1_to_N_out_1" type="motorcycle" departLane="best" departSpeed="max"/>
    <trip id="motorcycle_ns_152" depart="687.43" from="N_out_1_to_J1" to="J8_to_N_out_8" type="motorcycle" departLane="best" departSpeed="max"/>
    <trip id="motorcycle_ns_155" depart="688.70" from="N_out_9_to_J9" to="J7_to_N_out_7" type="motorcycle" departLane="best" departSpeed="max"/>
    <trip id="motorcycle_ns_153" depart="692.24" from="N_out_1_to_J1" to="J9_to_N_out_9" type="motorcycle" departLane="best" departSpeed="max"/>
    <trip id="motorcycle_ns_156" depart="693.05" from="N_out_1_to_J1" to="J8_to_N_out_8" type="motorcycle" departLane="best" departSpeed="max"/>
    <trip id="motorcycle_ns_157" depart="694.34" from="N_out_3_to_J3" to="J9_to_N_out_9" type="motorcycle" departLane="best" departSpeed="max"/>
    <trip id="motorcycle_ns_158" depart="695.08" from="N_out_2_to_J2" to="J2_to_N_out_2" type="motorcycle" departLane="best" departSpeed="max"/>
    <trip id="motorcycle_ns_159" depart="700.40" from="N_out_1_to_J1" to="J2_to_N_out_2" type="motorcycle" departLane="best" departSpeed="max"/>
    <trip id="motorcycle_ns_160" depart="701.63" from="N_out_9_to_J9" to="J3_to_N_out_3" type="motorcycle" departLane="best" departSpeed="max"/>
    <trip id="motorcycle_ns_161" depart="703.65" from="N_out_9_to_J9" to="J1_to_N_out_1" type="motorcycle" departLane="best" departSpeed="max"/>
    <trip id="motorcycle_ns_164" depart="707.57" from="N_out_2_to_J2" to="J8_to_N_out_8" type="motorcycle" departLane="best" departSpeed="max"/>
    <trip id="motorcycle_ns_162" depart="708.27" from="N_out_2_to_J2" to="J1_to_N_out_1" type="motorcycle" departLane="best" departSpeed="max"/>
    <trip id="motorcycle_ns_163" depart="708.60" from="N_out_7_to_J7" to="J1_to_N_out_1" type="motorcycle" departLane="best" departSpeed="max"/>
    <trip id="motorcycle_ns_165" depart="713.55" from="N_out_3_to_J3" to="J7_to_N_out_7" type="motorcycle" departLane="best" departSpeed="max"/>
    <trip id="motorcycle_ns_166" depart="715.95" from="N_out_9_to_J9" to="J3_to_N_out_3" type="motorcycle" departLane="best" departSpeed="max"/>
    <trip id="motorcycle_ns_167" depart="718.71" from="N_out_2_to_J2" to="J2_to_N_out_2" type="motorcycle" departLane="best" departSpeed="max"/>
    <trip id="motorcycle_ns_168" depart="720.80" from="N_out_1_to_J1" to="J9_to_N_out_9" type="motorcycle" departLane="best" departSpeed="max"/>
    <trip id="motorcycle_ns_169" depart="726.61" from="N_out_9_to_J9" to="J7_to_N_out_7" type="motorcycle" departLane="best" departSpeed="max"/>
    <trip id="motorcycle_ns_171" depart="729.20" from="N_out_2_to_J2" to="J1_to_N_out_1" type="motorcycle" departLane="best" departSpeed="max"/>
    <trip id="motorcycle_ns_170" depart="729.43" from="N_out_8_to_J8" to="J3_to_N_out_3" type="motorcycle" departLane="best" departSpeed="max"/>
    <trip id="motorcycle_ns_172" depart="734.17" from="N_out_8_to_J8" to="J3_to_N_out_3" type="motorcycle" departLane="best" departSpeed="max"/>
    <trip id="motorcycle_ns_173" depart="739.60" from="N_out_7_to_J7" to="J7_to_N_out_7" type="motorcycle" departLane="best" departSpeed="max"/>
    <trip id="motorcycle_ns_174" depart="741.74" from="N_out_7_to_J7" to="J8_to_N_out_8" type="motorcycle" departLane="best" departSpeed="max"/>
    <trip id="motorcycle_ns_176" depart="744.77" from="N_out_8_to_J8" to="J8_to_N_out_8" type="motorcycle" departLane="best" departSpeed="max"/>
    <trip id="motorcycle_ns_175" depart="745.19" from="N_out_8_to_J8" to="J7_to_N_out_7" type="motorcycle" departLane="best" departSpeed="max"/>
    <trip id="motorcycle_ns_178" depart="745.80" from="N_out_9_to_J9" to="J7_to_N_out_7" type="motorcycle" departLane="best" departSpeed="max"/>
    <trip id="motorcycle_ns_177" depart="746.87" from="N_out_7_to_J7" to="J1_to_N_out_1" type="motorcycle" departLane="best" departSpeed="max"/>
    <trip id="motorcycle_ns_179" depart="753.25" from="N_out_7_to_J7" to="J7_to_N_out_7" type="motorcycle" departLane="best" departSpeed="max"/>
    <trip id="motorcycle_ns_180" depart="759.49" from="N_out_7_to_J7" to="J9_to_N_out_9" type="motorcycle" departLane="best" departSpeed="max"/>
    <trip id="motorcycle_ns_181" depart="766.30" from="N_out_7_to_J7" to="J1_to_N_out_1" type="motorcycle" departLane="best" departSpeed="max"/>
    <trip id="motorcycle_ns_182" depart="772.46" from="N_out_2_to_J2" to="J2_to_N_out_2" type="motorcycle" departLane="best" departSpeed="max"/>
    <trip id="motorcycle_ns_183" depart="777.94" from="N_out_9_to_J9" to="J9_to_N_out_9" type="motorcycle" departLane="best" departSpeed="max"/>
    <trip id="motorcycle_ns_184" depart="784.41" from="N_out_8_to_J8" to="J8_to_N_out_8" type="motorcycle" departLane="best" departSpeed="max"/>
    <trip id="motorcycle_ns_185" depart="787.12" from="N_out_8_to_J8" to="J3_to_N_out_3" type="motorcycle" departLane="best" departSpeed="max"/>
    <trip id="motorcycle_ns_186" depart="788.66" from="N_out_7_to_J7" to="J1_to_N_out_1" type="motorcycle" departLane="best" departSpeed="max"/>
    <trip id="motorcycle_ns_188" depart="789.05" from="N_out_1_to_J1" to="J9_to_N_out_9" type="motorcycle" departLane="best" departSpeed="max"/>
    <trip id="motorcycle_ns_189" depart="791.00" from="N_out_7_to_J7" to="J2_to_N_out_2" type="motorcycle" departLane="best" departSpeed="max"/>
    <trip id="motorcycle_ns_187" depart="792.85" from="N_out_8_to_J8" to="J2_to_N_out_2" type="motorcycle" departLane="best" departSpeed="max"/>
    <trip id="motorcycle_ns_190" depart="796.65" from="N_out_2_to_J2" to="J7_to_N_out_7" type="motorcycle" departLane="best" departSpeed="max"/>
    <trip id="motorcycle_ns_191" depart="802.13" from="N_out_1_to_J1" to="J2_to_N_out_2" type="motorcycle" departLane="best" departSpeed="max"/>
    <trip id="motorcycle_ns_192" depart="810.38" from="N_out_7_to_J7" to="J8_to_N_out_8" type="motorcycle" departLane="best" departSpeed="max"/>
    <trip id="motorcycle_ns_193" depart="815.54" from="N_out_9_to_J9" to="J3_to_N_out_3" type="motorcycle" departLane="best" departSpeed="max"/>
    <trip id="motorcycle_ns_194" depart="822.08" from="N_out_3_to_J3" to="J7_to_N_out_7" type="motorcycle" departLane="best" departSpeed="max"/>
    <trip id="motorcycle_ns_195" depart="823.92" from="N_out_3_to_J3" to="J1_to_N_out_1" type="motorcycle" departLane="best" departSpeed="max"/>
    <trip id="motorcycle_ns_196" depart="827.53" from="N_out_7_to_J7" to="J8_to_N_out_8" type="motorcycle" departLane="best" departSpeed="max"/>
    <trip id="motorcycle_ns_197" depart="828.20" from="N_out_2_to_J2" to="J9_to_N_out_9" type="motorcycle" departLane="best" departSpeed="max"/>
    <trip id="motorcycle_ns_198" depart="833.73" from="N_out_8_to_J8" to="J8_to_N_out_8" type="motorcycle" departLane="best" departSpeed="max"/>
    <trip id="motorcycle_ns_199" depart="839.61" from="N_out_1_to_J1" to="J2_to_N_out_2" type="motorcycle" departLane="best" departSpeed="max"/>
    <trip id="motorcycle_ns_200" depart="845.72" from="N_out_9_to_J9" to="J8_to_N_out_8" type="motorcycle" departLane="best" departSpeed="max"/>
    <trip id="motorcycle_ns_201" depart="853.55" from="N_out_8_to_J8" to="J9_to_N_out_9" type="motorcycle" departLane="best" departSpeed="max"/>
    <trip id="motorcycle_ns_202" depart="858.38" from="N_out_7_to_J7" to="J8_to_N_out_8" type="motorcycle" departLane="best" departSpeed="max"/>
    <trip id="motorcycle_ns_203" depart="866.29" from="N_out_2_to_J2" to="J7_to_N_out_7" type="motorcycle" departLane="best" departSpeed="max"/>
    <trip id="motorcycle_ns_204" depart="871.77" from="N_out_2_to_J2" to="J7_to_N_out_7" type="motorcycle" departLane="best" departSpeed="max"/>
    <trip id="motorcycle_ns_205" depart="876.33" from="N_out_3_to_J3" to="J2_to_N_out_2" type="motorcycle" departLane="best" departSpeed="max"/>