<?xml version="1.0" ?>
<routes xmlns:xsi="http://www.w3.org/2001/XMLSchema-instance" xsi:noNamespaceSchemaLocation="http://sumo.dlr.de/xsd/routes_file.xsd">
    <trip id="truck_0" depart="0.00" from="N_out_8_to_J8" to="J9_to_N_out_9" type="truck" departLane="best" departSpeed="max"/>
    <trip id="truck_1" depart="131.77" from="N_out_7s_to_J7" to="J3_to_N_out_3e" type="truck" departLane="best" departSpeed="max"/>
    <trip id="truck_2" depart="218.90" from="N_out_3_to_J3" to="J3_to_N_out_3e" type="truck" departLane="best" departSpeed="max"/>
    <trip id="truck_3" depart="326.84" from="N_out_3e_to_J3" to="J1_to_N_out_1w" type="truck" departLane="best" departSpeed="max"/>
    <trip id="truck_4" depart="417.67" from="N_out_7s_to_J7" to="J2_to_N_out_2" type="truck" departLane="best" departSpeed="max"/>
    <trip id="truck_5" depart="517.59" from="N_out_3e_to_J3" to="J3_to_N_out_3e" type="truck" departLane="best" departSpeed="max"/>
    <trip id="truck_6" depart="617.45" from="N_out_9_to_J9" to="J3_to_N_out_3" type="truck" departLane="best" departSpeed="max"/>
    <trip id="truck_7" depart="673.77" from="N_out_7s_to_J7" to="J4_to_N_out_4" type="truck" departLane="best" departSpeed="max"/>
    <trip id="truck_8" depart="766.91" from="N_out_3e_to_J3" to="J9_to_N_out_9" type="truck" departLane="best" departSpeed="max"/>
    <trip id="truck_9" depart="838.61" from="N_out_9_to_J9" to="J2_to_N_out_2" type="truck" departLane="best" departSpeed="max"/>
    <trip id="truck_10" depart="912.52" from="N_out_4_to_J4" to="J1_to_N_out_1" type="truck" departLane="best" departSpeed="max"/>
    <trip id="truck_11" depart="988.62" from="N_out_7_to_J7" to="J7_to_N_out_7" type="truck" departLane="best" departSpeed="max"/>
    <trip id="truck_12" depart="1052.14" from="N_out_8_to_J8" to="J8_to_N_out_8" type="truck" departLane="best" departSpeed="max"/>
    <trip id="truck_13" depart="1135.05" from="N_out_3_to_J3" to="J9_to_N_out_9" type="truck" departLane="best" departSpeed="max"/>
    <trip id="truck_14" depart="1212.17" from="N_out_2_to_J2" to="J2_to_N_out_2" type="truck" departLane="best" departSpeed="max"/>
    <trip id="truck_15" depart="1273.41" from="N_out_7s_to_J7" to="J8_to_N_out_8" type="truck" departLane="best" departSpeed="max"/>
    <trip id="truck_16" depart="1336.95" from="N_out_6_to_J6" to="J2_to_N_out_2" type="truck" departLane="best" departSpeed="max"/>
    <trip id="truck_17" depart="1422.37" from="N_out_8_to_J8" to="J9_to_N_out_9" type="truck" departLane="best" departSpeed="max"/>
    <trip id="truck_18" depart="1508.76" from="N_out_9s_to_J9" to="J7_to_N_out_7" type="truck" departLane="best" departSpeed="max"/>
    <trip id="truck_19" depart="1576.90" from="N_out_1w_to_J1" to="J7_to_N_out_7s" type="truck" departLane="best" departSpeed="max"/>
    <trip id="truck_20" depart="1634.43" from="N_out_8_to_J8" to="J1_to_N_out_1" type="truck" departLane="best" departSpeed="max"/>
    <trip id="truck_21" depart="1711.16" from="N_out_8_to_J8" to="J4_to_N_out_4" type="truck" departLane="best" departSpeed="max"/>
    <trip id="truck_22" depart="1713.21" from="N_out_2_to_J2" to="J2_to_N_out_2" type="truck" departLane="best" departSpeed="max"/>
    <trip id="truck_23" depart="1792.40" from="N_out_2_to_J2" to="J3_to_N_out_3e" type="truck" departLane="best" departSpeed="max"/>
    <trip id="truck_24" depart="1851.20" from="N_out_6_to_J6" to="J3_to_N_out_3e" type="truck" departLane="best" departSpeed="max"/>
    <trip id="truck_25" depart="1931.17" from="N_out_6_to_J6" to="J4_to_N_out_4" type="truck" departLane="best" departSpeed="max"/>
    <trip id="truck_26" depart="1994.74" from="N_out_8_to_J8" to="J3_to_N_out_3" type="truck" departLane="best" departSpeed="max"/>
    <trip id="truck_27" depart="2071.09" from="N_out_1w_to_J1" to="J9_to_N_out_9s" type="truck" departLane="best" departSpeed="max"/>
    <trip id="truck_28" depart="2155.44" from="N_out_3e_to_J3" to="J3_to_N_out_3" type="truck" departLane="best" departSpeed="max"/>
    <trip id="truck_29" depart="2215.16" from="N_out_9s_to_J9" to="J6_to_N_out_6" type="truck" departLane="best" departSpeed="max"/>
    <trip id="truck_30" depart="2216.78" from="N_out_9_to_J9" to="J9_to_N_out_9" type="truck" departLane="best" departSpeed="max"/>
    <trip id="truck_31" depart="2273.21" from="N_out_3_to_J3" to="J6_to_N_out_6" type="truck" departLane="best" departSpeed="max"/>
    <trip id="truck_32" depart="2359.16" from="N_out_6_to_J6" to="J9_to_N_out_9s" type="truck" departLane="best" departSpeed="max"/>
    <trip id="truck_33" depart="2361.15" from="N_out_1_to_J1" to="J1_to_N_out_1w" type="truck" departLane="best" departSpeed="max"/>
    <trip id="truck_34" depart="2363.32" from="N_out_4_to_J4" to="J9_to_N_out_9" type="truck" departLane="best" departSpeed="max"/>
    <trip id="truck_35" depart="2431.16" from="N_out_7s_to_J7" to="J7_to_N_out_7s" type="truck" departLane="best" departSpeed="max"/>
    <trip id="truck_36" depart="2432.81" from="N_out_9s_to_J9" to="J1_to_N_out_1" type="truck" departLane="best" departSpeed="max"/>
    <trip id="truck_37" depart="2436.49" from="N_out_2_to_J2" to="J4_to_N_out_4" type="truck" departLane="best" departSpeed="max"/>
    <trip id="truck_38" depart="2503.16" from="N_out_1_to_J1" to="J7_to_N_out_7" type="truck" departLane="best" departSpeed="max"/>
    <trip id="truck_39" depart="2505.78" from="N_out_3_to_J3" to="J1_to_N_out_1" type="truck" departLane="best" departSpeed="max"/>
    <trip id="truck_40" depart="2575.16" from="N_out_1w_to_J1" to="J3_to_N_out_3" type="truck" departLane="best" departSpeed="max"/>
    <trip id="truck_41" depart="2577.13" from="N_out_2_to_J2" to="J4_to_N_out_4" type="truck" departLane="best" departSpeed="max"/>
    <trip id="truck_42" depart="2647.16" from="N_out_1w_to_J1" to="J9_to_N_out_9" type="truck" departLane="best" departSpeed="max"/>
    <trip id="truck_43" depart="2648.61" from="N_out_8_to_J8" to="J9_to_N_out_9" type="truck" departLane="best" departSpeed="max"/>
    <trip id="truck_44" depart="2719.16" from="N_out_3_to_J3" to="J7_to_N_out_7" type="truck" departLane="best" departSpeed="max"/>
    <trip id="truck_45" depart="2720.53" from="N_out_3e_to_J3" to="J7_to_N_out_7" type="truck" departLane="best" departSpeed="max"/>
    <trip id="truck_46" depart="2792.09" from="N_out_9_to_J9" to="J4_to_N_out_4" type="truck" departLane="best" departSpeed="max"/>
    <trip id="truck_47" depart="2794.21" from="N_out_3e_to_J3" to="J8_to_N_out_8" type="truck" departLane="best" departSpeed="max"/>
    <trip id="truck_48" depart="2794.72" from="N_out_1_to_J1" to="J9_to_N_out_9" type="truck" departLane="best" departSpeed="max"/>
    <trip id="truck_49" depart="2877.16" from="N_out_6_to_J6" to="J1_to_N_out_1" type="truck" departLane="best" departSpeed="max"/>
</routes>
