<?xml version="1.0" ?>
<routes xmlns:xsi="http://www.w3.org/2001/XMLSchema-instance" xsi:noNamespaceSchemaLocation="http://sumo.dlr.de/xsd/routes_file.xsd">
    <trip id="car_wb_0" depart="0.00" from="N_out_3e_to_J3" to="J7_to_N_out_7s" type="car" departLane="best" departSpeed="max"/>
    <trip id="car_wb_1" depart="1.04" from="N_out_3e_to_J3" to="J4_to_N_out_4" type="car" departLane="best" departSpeed="max"/>
    <trip id="car_wb_2" depart="2.46" from="N_out_6_to_J6" to="J7_to_N_out_7s" type="car" departLane="best" departSpeed="max"/>
    <trip id="car_wb_3" depart="21.18" from="N_out_9s_to_J9" to="J4_to_N_out_4" type="car" departLane="best" departSpeed="max"/>
    <trip id="car_wb_4" depart="39.71" from="N_out_9s_to_J9" to="J7_to_N_out_7" type="car" departLane="best" departSpeed="max"/>
    <trip id="car_wb_5" depart="40.86" from="N_out_3e_to_J3" to="J1_to_N_out_1w" type="car" departLane="best" departSpeed="max"/>
    <trip id="car_wb_6" depart="44.51" from="N_out_6_to_J6" to="J1_to_N_out_1w" type="car" departLane="best" departSpeed="max"/>
    <trip id="car_wb_7" depart="44.63" from="N_out_3e_to_J3" to="J7_to_N_out_7s" type="car" departLane="best" departSpeed="max"/>
    <trip id="car_wb_8" depart="59.14" from="N_out_3e_to_J3" to="J7_to_N_out_7s" type="car" departLane="best" departSpeed="max"/>
    <trip id="car_wb_9" depart="61.70" from="N_out_9s_to_J9" to="J7_to_N_out_7s" type="car" departLane="best" departSpeed="max"/>
    <trip id="car_wb_10" depart="74.97" from="N_out_3e_to_J3" to="J1_to_N_out_1w" type="car" departLane="best" departSpeed="max"/>
    <trip id="car_wb_11" depart="98.14" from="N_out_6_to_J6" to="J1_to_N_out_1w" type="car" departLane="best" departSpeed="max"/>
    <trip id="car_wb_12" depart="116.77" from="N_out_3e_to_J3" to="J1_to_N_out_1w" type="car" departLane="best" departSpeed="max"/>
    <trip id="car_wb_13" depart="136.72" from="N_out_6_to_J6" to="J7_to_N_out_7" type="car" departLane="best" departSpeed="max"/>
    <trip id="car_wb_14" depart="152.90" from="N_out_6_to_J6" to="J4_to_N_out_4" type="car" departLane="best" departSpeed="max"/>
    <trip id="car_wb_15" depart="170.75" from="N_out_9s_to_J9" to="J7_to_N_out_7s" type="car" departLane="best" departSpeed="max"/>
    <trip id="car_wb_16" depart="185.87" from="N_out_6_to_J6" to="J7_to_N_out_7s" type="car" departLane="best" departSpeed="max"/>
    <trip id="car_wb_17" depart="205.75" from="N_out_9s_to_J9" to="J7_to_N_out_7s" type="car" departLane="best" departSpeed="max"/>
    <trip id="car_wb_18" depart="207.99" from="N_out_3e_to_J3" to="J7_to_N_out_7" type="car" departLane="best" departSpeed="max"/>
    <trip id="car_wb_19" depart="223.10" from="N_out_9s_to_J9" to="J1_to_N_out_1w" type="car" departLane="best" departSpeed="max"/>
    <trip id="car_wb_20" depart="225.09" from="N_out_6_to_J6" to="J4_to_N_out_4" type="car" departLane="best" departSpeed="max"/>
    <trip id="car_wb_21" depart="227.49" from="N_out_3e_to_J3" to="J7_to_N_out_7" type="car" departLane="best" departSpeed="max"/>
    <trip id="car_wb_22" depart="240.27" from="N_out_6_to_J6" to="J4_to_N_out_4" type="car" departLane="best" departSpeed="max"/>
    <trip id="car_wb_23" depart="241.40" from="N_out_6_to_J6" to="J7_to_N_out_7" type="car" departLane="best" departSpeed="max"/>
    <trip id="car_wb_24" depart="245.45" from="N_out_6_to_J6" to="J4_to_N_out_4" type="car" departLane="best" departSpeed="max"/>
    <trip id="car_wb_25" depart="247.26" from="N_out_9s_to_J9" to="J7_to_N_out_7" type="car" departLane="best" departSpeed="max"/>
    <trip id="car_wb_26" depart="259.94" from="N_out_9s_to_J9" to="J7_to_N_out_7s" type="car" departLane="best" departSpeed="max"/>
    <trip id="car_wb_27" depart="273.39" from="N_out_3e_to_J3" to="J1_to_N_out_1w" type="car" departLane="best" departSpeed="max"/>
    <trip id="car_wb_28" depart="293.19" from="N_out_6_to_J6" to="J7_to_N_out_7s" type="car" departLane="best" departSpeed="max"/>
    <trip id="car_wb_29" depart="309.31" from="N_out_9s_to_J9" to="J7_to_N_out_7" type="car" departLane="best" departSpeed="max"/>
    <trip id="car_wb_30" depart="323.42" from="N_out_9s_to_J9" to="J1_to_N_out_1w" type="car" departLane="best" departSpeed="max"/>
    <trip id="car_wb_31" depart="326.05" from="N_out_3e_to_J3" to="J4_to_N_out_4" type="car" departLane="best" departSpeed="max"/>
    <trip id="car_wb_32" depart="328.14" from="N_out_9s_to_J9" to="J4_to_N_out_4" type="car" departLane="best" departSpeed="max"/>
    <trip id="car_wb_33" depart="340.45" from="N_out_3e_to_J3" to="J4_to_N_out_4" type="car" departLane="best" departSpeed="max"/>
    <trip id="car_wb_34" depart="355.53" from="N_out_6_to_J6" to="J4_to_N_out_4" type="car" departLane="best" departSpeed="max"/>
    <trip id="car_wb_35" depart="356.63" from="N_out_9s_to_J9" to="J7_to_N_out_7s" type="car" departLane="best" departSpeed="max"/>
    <trip id="car_wb_36" depart="359.82" from="N_out_3e_to_J3" to="J7_to_N_out_7s" type="car" departLane="best" departSpeed="max"/>
    <trip id="car_wb_37" depart="364.19" from="N_out_9s_to_J9" to="J7_to_N_out_7" type="car" departLane="best" departSpeed="max"/>
    <trip id="car_wb_38" depart="372.73" from="N_out_3e_to_J3" to="J7_to_N_out_7" type="car" departLane="best" departSpeed="max"/>
    <trip id="car_wb_39" depart="386.29" from="N_out_6_to_J6" to="J7_to_N_out_7" type="car" departLane="best" departSpeed="max"/>
    <trip id="car_wb_40" depart="402.59" from="N_out_3e_to_J3" to="J7_to_N_out_7s" type="car" departLane="best" departSpeed="max"/>
    <trip id="car_wb_41" depart="403.76" from="N_out_9s_to_J9" to="J1_to_N_out_1w" type="car" departLane="best" departSpeed="max"/>
    <trip id="car_wb_42" depart="406.15" from="N_out_6_to_J6" to="J4_to_N_out_4" type="car" departLane="best" departSpeed="max"/>
    <trip id="car_wb_43" depart="419.49" from="N_out_9s_to_J9" to="J4_to_N_out_4" type="car" departLane="best" departSpeed="max"/>
    <trip id="car_wb_44" depart="434.94" from="N_out_3e_to_J3" to="J4_to_N_out_4" type="car" departLane="best" departSpeed="max"/>
    <trip id="car_wb_45" depart="448.63" from="N_out_6_to_J6" to="J1_to_N_out_1w" type="car" departLane="best" departSpeed="max"/>
    <trip id="car_wb_46" depart="464.75" from="N_out_6_to_J6" to="J7_to_N_out_7s" type="car" departLane="best" departSpeed="max"/>
    <trip id="car_wb_47" depart="478.31" from="N_out_6_to_J6" to="J7_to_N_out_7s" type="car" departLane="best" departSpeed="max"/>
    <trip id="car_wb_48" depart="480.11" from="N_out_3e_to_J3" to="J7_to_N_out_7" type="car" departLane="best" departSpeed="max"/>
    <trip id="car_wb_49" depart="481.22" from="N_out_6_to_J6" to="J4_to_N_out_4" type="car" departLane="best" departSpeed="max"/>
    <trip id="car_wb_50" depart="481.89" from="N_out_6_to_J6" to="J7_to_N_out_7" type="car" departLane="best" departSpeed="max"/>
    <trip id="car_wb_51" depart="493.08" from="N_out_3e_to_J3" to="J7_to_N_out_7" type="car" departLane="best" departSpeed="max"/>
    <trip id="car_wb_52" depart="495.90" from="N_out_9s_to_J9" to="J7_to_N_out_7s" type="car" departLane="best" departSpeed="max"/>
    <trip id="car_wb_53" depart="496.17" from="N_out_6_to_J6" to="J7_to_N_out_7" type="car" departLane="best" departSpeed="max"/>
    <trip id="car_wb_54" depart="505.56" from="N_out_9s_to_J9" to="J7_to_N_out_7s" type="car" departLane="best" departSpeed="max"/>
    <trip id="car_wb_55" depart="522.27" from="N_out_6_to_J6" to="J7_to_N_out_7" type="car" departLane="best" departSpeed="max"/>
    <trip id="car_wb_56" depart="524.33" from="N_out_3e_to_J3" to="J4_to_N_out_4" type="car" departLane="best" departSpeed="max"/>
    <trip id="car_wb_57" depart="536.69" from="N_out_3e_to_J3" to="J7_to_N_out_7s" type="car" departLane="best" departSpeed="max"/>
    <trip id="car_wb_58" depart="538.07" from="N_out_9s_to_J9" to="J7_to_N_out_7s" type="car" departLane="best" departSpeed="max"/>
    <trip id="car_wb_60" depart="540.40" from="N_out_9s_to_J9" to="J7_to_N_out_7" type="car" departLane="best" departSpeed="max"/>
    <trip id="car_wb_59" depart="542.16" from="N_out_6_to_J6" to="J7_to_N_out_7" type="car" departLane="best" departSpeed="max"/>
    <trip id="car_wb_61" depart="552.10" from="N_out_3e_to_J3" to="J1_to_N_out_1w" type="car" departLane="best" departSpeed="max"/>
    <trip id="car_wb_62" depart="567.29" from="N_out_9s_to_J9" to="J4_to_N_out_4" type="car" departLane="best" departSpeed="max"/>
    <trip id="car_wb_63" depart="577.07" from="N_out_6_to_J6" to="J7_to_N_out_7" type="car" departLane="best" departSpeed="max"/>
    <trip id="car_wb_64" depart="592.97" from="N_out_6_to_J6" to="J7_to_N_out_7s" type="car" departLane="best" departSpeed="max"/>
    <trip id="car_wb_65" depart="607.19" from="N_out_6_to_J6" to="J1_to_N_out_1w" type="car" departLane="best" departSpeed="max"/>
    <trip id="car_wb_66" depart="609.28" from="N_out_6_to_J6" to="J7_to_N_out_7s" type="car" departLane="best" departSpeed="max"/>
    <trip id="car_wb_68" depart="612.21" from="N_out_9s_to_J9" to="J7_to_N_out_7s" type="car" departLane="best" departSpeed="max"/>
    <trip id="car_wb_67" depart="612.89" from="N_out_9s_to_J9" to="J1_to_N_out_1w" type="car" departLane="best" departSpeed="max"/>
    <trip id="car_wb_69" depart="619.20" from="N_out_6_to_J6" to="J4_to_N_out_4" type="car" departLane="best" departSpeed="max"/>
    <trip id="car_wb_70" depart="634.10" from="N_out_9s_to_J9" to="J7_to_N_out_7s" type="car" departLane="best" departSpeed="max"/>
    <trip id="car_wb_71" depart="648.29" from="N_out_3e_to_J3" to="J7_to_N_out_7s" type="car" departLane="best" departSpeed="max"/>
    <trip id="car_wb_72" depart="650.79" from="N_out_6_to_J6" to="J7_to_N_out_7" type="car" departLane="best" departSpeed="max"/>
    <trip id="car_wb_73" depart="661.16" from="N_out_9s_to_J9" to="J7_to_N_out_7" type="car" departLane="best" departSpeed="max"/>
    <trip id="car_wb_74" depart="675.22" from="N_out_3e_to_J3" to="J4_to_N_out_4" type="car" departLane="best" departSpeed="max"/>
    <trip id="car_wb_75" depart="676.81" from="N_out_6_to_J6" to="J1_to_N_out_1w" type="car" departLane="best" departSpeed="max"/>
    <trip id="car_wb_76" depart="690.51" from="N_out_6_to_J6" to="J7_to_N_out_7s" type="car" departLane="best" departSpeed="max"/>
    <trip id="car_wb_77" depart="704.07" from="N_out_6_to_J6" to="J4_to_N_out_4" type="car" departLane="best" departSpeed="max"/>
    <trip id="car_wb_78" depart="716.32" from="N_out_9s_to_J9" to="J7_to_N_out_7" type="car" departLane="best" departSpeed="max"/>
    <trip id="car_wb_79" depart="728.03" from="N_out_3e_to_J3" to="J7_to_N_out_7s" type="car" departLane="best" departSpeed="max"/>
    <trip id="car_wb_80" depart="730.02" from="N_out_9s_to_J9" to="J4_to_N_out_4" type="car" departLane="best" departSpeed="max"/>
    <trip id="car_wb_81" depart="731.23" from="N_out_3e_to_J3" to="J7_to_N_out_7" type="car" departLane="best" departSpeed="max"/>
    <trip id="car_wb_82" depart="736.95" from="N_out_9s_to_J9" to="J4_to_N_out_4" type="car" departLane="best" departSpeed="max"/>
    <trip id="car_wb_83" depart="739.32" from="N_out_3e_to_J3" to="J7_to_N_out_7s" type="car" departLane="best" departSpeed="max"/>
    <trip id="car_wb_84" depart="756.26" from="N_out_6_to_J6" to="J7_to_N_out_7s" type="car" departLane="best" departSpeed="max"/>
    <trip id="car_wb_85" depart="765.19" from="N_out_3e_to_J3" to="J1_to_N_out_1w" type="car" departLane="best" departSpeed="max"/>
    <trip id="car_wb_86" depart="779.52" from="N_out_6_to_J6" to="J1_to_N_out_1w" type="car" departLane="best" departSpeed="max"/>
    <trip id="car_wb_87" depart="781.41" from="N_out_9s_to_J9" to="J7_to_N_out_7s" type="car" departLane="best" departSpeed="max"/>
    <trip id="car_wb_88" depart="783.41" from="N_out_9s_to_J9" to="J7_to_N_out_7s" type="car" departLane="best" departSpeed="max"/>
    <trip id="car_wb_89" depart="787.71" from="N_out_6_to_J6" to="J4_to_N_out_4" type="car" departLane="best" departSpeed="max"/>
    <trip id="car_wb_90" depart="793.62" from="N_out_3e_to_J3" to="J7_to_N_out_7s" type="car" departLane="best" departSpeed="max"/>
    <trip id="car_wb_91" depart="804.55" from="N_out_6_to_J6" to="J1_to_N_out_1w" type="car" departLane="best" departSpeed="max"/>
    <trip id="car_wb_92" depart="815.96" from="N_out_3e_to_J3" to="J1_to_N_out_1w" type="car" departLane="best" departSpeed="max"/>
    <trip id="car_wb_93" depart="830.97" from="N_out_3e_to_J3" to="J7_to_N_out_7s" type="car" departLane="best" departSpeed="max"/>
    <trip id="car_wb_94" depart="844.28" from="N_out_3e_to_J3" to="J4_to_N_out_4" type="car" departLane="best" departSpeed="max"/>
    <trip id="car_wb_95" depart="854.57" from="N_out_6_to_J6" to="J1_to_N_out_1w" type="car" departLane="best" departSpeed="max"/>
    <trip id="car_wb_96" depart="866.76" from="N_out_3e_to_J3" to="J1_to_N_out_1w" type="car" departLane="best" departSpeed="max"/>
    <trip id="car_wb_97" depart="880.15" from="N_out_3e_to_J3" to="J7_to_N_out_7s" type="car" departLane="best" departSpeed="max"/>
    <trip id="car_wb_98" depart="893.00" from="N_out_3e_to_J3" to="J1_to_N_out_1w" type="car" departLane="best" departSpeed="max"/>
    <trip id="car_wb_99" depart="903.40" from="N_out_6_to_J6" to="J7_to_N_out_7s" type="car" departLane="best" departSpeed="max"/>
    <trip id="car_wb_100" depart="913.52" from="N_out_9s_to_J9" to="J1_to_N_out_1w" type="car" departLane="best" departSpeed="max"/>
    <trip id="car_wb_101" depart="927.08" from="N_out_6_to_J6" to="J1_to_N_out_1w" type="car" departLane="best" departSpeed="max"/>
    <trip id="car_wb_102" depart="939.61" from="N_out_3e_to_J3" to="J7_to_N_out_7" type="car" departLane="best" departSpeed="max"/>
    <trip id="car_wb_103" depart="953.36" from="N_out_3e_to_J3" to="J7_to_N_out_7" type="car" departLane="best" departSpeed="max"/>
    <trip id="car_wb_104" depart="965.29" from="N_out_3e_to_J3" to="J7_to_N_out_7s" type="car" departLane="best" departSpeed="max"/>
    <trip id="car_wb_105" depart="975.09" from="N_out_9s_to_J9" to="J7_to_N_out_7" type="car" departLane="best" departSpeed="max"/>
    <trip id="car_wb_106" depart="977.36" from="N_out_3e_to_J3" to="J1_to_N_out_1w" type="car" departLane="best" departSpeed="max"/>
    <trip id="car_wb_107" depart="978.36" from="N_out_9s_to_J9" to="J7_to_N_out_7" type="car" departLane="best" departSpeed="max"/>
    <trip id="car_wb_108" depart="989.12" from="N_out_9s_to_J9" to="J7_to_N_out_7s" type="car" departLane="best" departSpeed="max"/>
    <trip id="car_wb_109" depart="1001.20" from="N_out_6_to_J6" to="J4_to_N_out_4" type="car" departLane="best" departSpeed="max"/>
    <trip id="car_wb_110" depart="1010.62" from="N_out_9s_to_J9" to="J4_to_N_out_4" type="car" departLane="best" departSpeed="max"/>
    <trip id="car_wb_111" depart="1024.05" from="N_out_9s_to_J9" to="J1_to_N_out_1w" type="car" departLane="best" departSpeed="max"/>
    <trip id="car_wb_112" depart="1035.09" from="N_out_9s_to_J9" to="J7_to_N_out_7" type="car" departLane="best" departSpeed="max"/>
    <trip id="car_wb_113" depart="1037.59" from="N_out_3e_to_J3" to="J7_to_N_out_7" type="car" departLane="best" departSpeed="max"/>
    <trip id="car_wb_114" depart="1038.19" from="N_out_6_to_J6" to="J1_to_N_out_1w" type="car" departLane="best" departSpeed="max"/>
    <trip id="car_wb_115" depart="1042.41" from="N_out_9s_to_J9" to="J7_to_N_out_7s" type="car" departLane="best" departSpeed="max"/>
    <trip id="car_wb_116" depart="1045.76" from="N_out_6_to_J6" to="J7_to_N_out_7s" type="car" departLane="best" departSpeed="max"/>
    <trip id="car_wb_117" depart="1056.81" from="N_out_9s_to_J9" to="J1_to_N_out_1w" type="car" departLane="best" departSpeed="max"/>
    <trip id="car_wb_118" depart="1069.29" from="N_out_9s_to_J9" to="J7_to_N_out_7" type="car" departLane="best" departSpeed="max"/>
    <trip id="car_wb_119" depart="1081.17" from="N_out_9s_to_J9" to="J1_to_N_out_1w" type="car" departLane="best" departSpeed="max"/>
    <trip id="car_wb_120" depart="1095.09" from="N_out_6_to_J6" to="J4_to_N_out_4" type="car" departLane="best" departSpeed="max"/>
    <trip id="car_wb_121" depart="1096.40" from="N_out_3e_to_J3" to="J7_to_N_out_7s" type="car" departLane="best" departSpeed="max"/>
    <trip id="car_wb_122" depart="1097.62" from="N_out_6_to_J6" to="J7_to_N_out_7" type="car" departLane="best" departSpeed="max"/>
    <trip id="car_wb_123" depart="1107.32" from="N_out_9s_to_J9" to="J1_to_N_out_1w" type="car" departLane="best" departSpeed="max"/>
    <trip id="car_wb_124" depart="1120.26" from="N_out_3e_to_J3" to="J4_to_N_out_4" type="car" departLane="best" departSpeed="max"/>
    <trip id="car_wb_125" depart="1131.77" from="N_out_3e_to_J3" to="J7_to_N_out_7s" type="car" departLane="best" departSpeed="max"/>
    <trip id="car_wb_126" depart="1142.56" from="N_out_6_to_J6" to="J7_to_N_out_7s" type="car" departLane="best" departSpeed="max"/>
    <trip id="car_wb_127" depart="1155.09" from="N_out_6_to_J6" to="J4_to_N_out_4" type="car" departLane="best" departSpeed="max"/>
    <trip id="car_wb_128" depart="1157.08" from="N_out_9s_to_J9" to="J1_to_N_out_1w" type="car" departLane="best" departSpeed="max"/>
    <trip id="car_wb_129" depart="1159.17" from="N_out_9s_to_J9" to="J7_to_N_out_7s" type="car" departLane="best" departSpeed="max"/>
    <trip id="car_wb_130" depart="1167.09" from="N_out_3e_to_J3" to="J1_to_N_out_1w" type="car" departLane="best" departSpeed="max"/>
    <trip id="car_wb_131" depart="1169.59" from="N_out_6_to_J6" to="J7_to_N_out_7" type="car" departLane="best" departSpeed="max"/>
    <trip id="car_wb_132" depart="1172.66" from="N_out_6_to_J6" to="J7_to_N_out_7" type="car" departLane="best" departSpeed="max"/>
    <trip id="car_wb_133" depart="1175.12" from="N_out_9s_to_J9" to="J4_to_N_out_4" type="car" departLane="best" departSpeed="max"/>
    <trip id="car_wb_134" depart="1178.05" from="N_out_3e_to_J3" to="J7_to_N_out_7s" type="car" departLane="best" departSpeed="max"/>
    <trip id="car_wb_135" depart="1190.38" from="N_out_9s_to_J9" to="J7_to_N_out_7s" type="car" departLane="best" departSpeed="max"/>
    <trip id="car_wb_136" depart="1202.50" from="N_out_6_to_J6" to="J7_to_N_out_7" type="car" departLane="best" departSpeed="max"/>
    <trip id="car_wb_137" depart="1212.77" from="N_out_9s_to_J9" to="J1_to_N_out_1w" type="car" departLane="best" departSpeed="max"/>
    <trip id="car_wb_138" depart="1227.59" from="N_out_6_to_J6" to="J1_to_N_out_1w" type="car" departLane="best" departSpeed="max"/>
    <trip id="car_wb_139" depart="1238.83" from="N_out_9s_to_J9" to="J4_to_N_out_4" type="car" departLane="best" departSpeed="max"/>
    <trip id="car_wb_140" depart="1251.09" from="N_out_3e_to_J3" to="J7_to_N_out_7" type="car" departLane="best" departSpeed="max"/>
    <trip id="car_wb_141" depart="1253.42" from="N_out_6_to_J6" to="J1_to_N_out_1w" type="car" departLane="best" departSpeed="max"/>
    <trip id="car_wb_142" depart="1263.92" from="N_out_3e_to_J3" to="J4_to_N_out_4" type="car" departLane="best" departSpeed="max"/>
    <trip id="car_wb_143" depart="1275.09" from="N_out_3e_to_J3" to="J1_to_N_out_1w" type="car" departLane="best" departSpeed="max"/>
    <trip id="car_wb_144" depart="1277.58" from="N_out_3e_to_J3" to="J1_to_N_out_1w" type="car" departLane="best" departSpeed="max"/>
    <trip id="car_wb_145" depart="1280.83" from="N_out_6_to_J6" to="J1_to_N_out_1w" type="car" departLane="best" departSpeed="max"/>
    <trip id="car_wb_146" depart="1281.40" from="N_out_6_to_J6" to="J7_to_N_out_7s" type="car" departLane="best" departSpeed="max"/>
    <trip id="car_wb_147" depart="1288.79" from="N_out_3e_to_J3" to="J1_to_N_out_1w" type="car" departLane="best" departSpeed="max"/>
    <trip id="car_wb_148" depart="1299.09" from="N_out_3e_to_J3" to="J7_to_N_out_7" type="car" departLane="best" departSpeed="max"/>
    <trip id="car_wb_149" depart="1301.61" from="N_out_3e_to_J3" to="J1_to_N_out_1w" type="car" departLane="best" departSpeed="max"/>
    <trip id="car_wb_150" depart="1305.05" from="N_out_9s_to_J9" to="J7_to_N_out_7" type="car" departLane="best" departSpeed="max"/>
    <trip id="car_wb_151" depart="1311.09" from="N_out_3e_to_J3" to="J1_to_N_out_1w" type="car" departLane="best" departSpeed="max"/>
    <trip id="car_wb_152" depart="1312.29" from="N_out_3e_to_J3" to="J4_to_N_out_4" type="car" departLane="best" departSpeed="max"/>
    <trip id="car_wb_153" depart="1316.74" from="N_out_6_to_J6" to="J7_to_N_out_7" type="car" departLane="best" departSpeed="max"/>
    <trip id="car_wb_154" depart="1319.08" from="N_out_9s_to_J9" to="J4_to_N_out_4" type="car" departLane="best" departSpeed="max"/>
    <trip id="car_wb_155" depart="1320.99" from="N_out_9s_to_J9" to="J1_to_N_out_1w" type="car" departLane="best" departSpeed="max"/>
    <trip id="car_wb_156" depart="1332.78" from="N_out_6_to_J6" to="J7_to_N_out_7" type="car" departLane="best" departSpeed="max"/>
    <trip id="car_wb_157" depart="1347.51" from="N_out_9s_to_J9" to="J1_to_N_out_1w" type="car" departLane="best" departSpeed="max"/>
    <trip id="car_wb_158" depart="1359.09" from="N_out_6_to_J6" to="J7_to_N_out_7s" type="car" departLane="best" departSpeed="max"/>
    <trip id="car_wb_159" depart="1360.89" from="N_out_6_to_J6" to="J1_to_N_out_1w" type="car" departLane="best" departSpeed="max"/>
    <trip id="car_wb_160" depart="1364.88" from="N_out_9s_to_J9" to="J7_to_N_out_7" type="car" departLane="best" departSpeed="max"/>
    <trip id="car_wb_161" depart="1371.46" from="N_out_6_to_J6" to="J1_to_N_out_1w" type="car" departLane="best" departSpeed="max"/>
    <trip id="car_wb_162" depart="1383.09" from="N_out_9s_to_J9" to="J4_to_N_out_4" type="car" departLane="best" departSpeed="max"/>
    <trip id="car_wb_163" depart="1385.04" from="N_out_6_to_J6" to="J4_to_N_out_4" type="car" departLane="best" departSpeed="max"/>
    <trip id="car_wb_164" depart="1386.10" from="N_out_6_to_J6" to="J1_to_N_out_1w" type="car" departLane="best" departSpeed="max"/>
    <trip id="car_wb_165" depart="1386.35" from="N_out_3e_to_J3" to="J4_to_N_out_4" type="car" departLane="best" departSpeed="max"/>
    <trip id="car_wb_166" depart="1395.09" from="N_out_6_to_J6" to="J7_to_N_out_7" type="car" departLane="best" departSpeed="max"/>
    <trip id="car_wb_167" depart="1396.76" from="N_out_9s_to_J9" to="J1_to_N_out_1w" type="car" departLane="best" departSpeed="max"/>
    <trip id="car_wb_168" depart="1406.27" from="N_out_3e_to_J3" to="J7_to_N_out_7" type="car" departLane="best" departSpeed="max"/>
    <trip id="car_wb_169" depart="1419.09" from="N_out_6_to_J6" to="J1_to_N_out_1w" type="car" departLane="best" departSpeed="max"/>
    <trip id="car_wb_170" depart="1421.75" from="N_out_9s_to_J9" to="J1_to_N_out_1w" type="car" departLane="best" departSpeed="max"/>
    <trip id="car_wb_172" depart="1424.15" from="N_out_9s_to_J9" to="J4_to_N_out_4" type="car" departLane="best" departSpeed="max"/>
    <trip id="car_wb_171" depart="1424.54" from="N_out_6_to_J6" to="J4_to_N_out_4" type="car" departLane="best" departSpeed="max"/>
    <trip id="car_wb_173" depart="1429.56" from="N_out_3e_to_J3" to="J7_to_N_out_7s" type="car" departLane="best" departSpeed="max"/>
    <trip id="car_wb_174" depart="1445.31" from="N_out_6_to_J6" to="J4_to_N_out_4" type="car" departLane="best" departSpeed="max"/>
    <trip id="car_wb_175" depart="1452.95" from="N_out_3e_to_J3" to="J7_to_N_out_7s" type="car" departLane="best" departSpeed="max"/>
    <trip id="car_wb_176" depart="1467.09" from="N_out_6_to_J6" to="J4_to_N_out_4" type="car" departLane="best" departSpeed="max"/>
    <trip id="car_wb_177" depart="1469.13" from="N_out_3e_to_J3" to="J4_to_N_out_4" type="car" departLane="best" departSpeed="max"/>
    <trip id="car_wb_178" depart="1479.09" from="N_out_6_to_J6" to="J7_to_N_out_7" type="car" departLane="best" departSpeed="max"/>
    <trip id="car_wb_179" depart="1480.71" from="N_out_6_to_J6" to="J7_to_N_out_7" type="car" departLane="best" departSpeed="max"/>
    <trip id="car_wb_180" depart="1491.09" from="N_out_6_to_J6" to="J1_to_N_out_1w" type="car" departLane="best" departSpeed="max"/>
    <trip id="car_wb_181" depart="1492.69" from="N_out_9s_to_J9" to="J7_to_N_out_7s" type="car" departLane="best" departSpeed="max"/>
    <trip id="car_wb_182" depart="1502.66" from="N_out_9s_to_J9" to="J4_to_N_out_4" type="car" departLane="best" departSpeed="max"/>
    <trip id="car_wb_183" depart="1514.84" from="N_out_6_to_J6" to="J1_to_N_out_1w" type="car" departLane="best" departSpeed="max"/>
    <trip id="car_wb_184" depart="1527.14" from="N_out_9s_to_J9" to="J7_to_N_out_7" type="car" departLane="best" departSpeed="max"/>
    <trip id="car_wb_185" depart="1536.78" from="N_out_3e_to_J3" to="J1_to_N_out_1w" type="car" departLane="best" departSpeed="max"/>
    <trip id="car_wb_186" depart="1549.88" from="N_out_3e_to_J3" to="J4_to_N_out_4" type="car" departLane="best" departSpeed="max"/>
    <trip id="car_wb_187" depart="1560.74" from="N_out_3e_to_J3" to="J4_to_N_out_4" type="car" departLane="best" departSpeed="max"/>
    <trip id="car_wb_188" depart="1575.31" from="N_out_9s_to_J9" to="J4_to_N_out_4" type="car" departLane="best" departSpeed="max"/>
    <trip id="car_wb_189" depart="1586.75" from="N_out_3e_to_J3" to="J7_to_N_out_7s" type="car" departLane="best" departSpeed="max"/>
    <trip id="car_wb_190" depart="1599.09" from="N_out_6_to_J6" to="J1_to_N_out_1w" type="car" departLane="best" departSpeed="max"/>
    <trip id="car_wb_191" depart="1601.17" from="N_out_9s_to_J9" to="J4_to_N_out_4" type="car" departLane="best" departSpeed="max"/>
    <trip id="car_wb_192" depart="1602.96" from="N_out_3e_to_J3" to="J7_to_N_out_7" type="car" departLane="best" departSpeed="max"/>
    <trip id="car_wb_193" depart="1611.09" from="N_out_6_to_J6" to="J4_to_N_out_4" type="car" departLane="best" departSpeed="max"/>
    <trip id="car_wb_195" depart="1613.51" from="N_out_9s_to_J9" to="J1_to_N_out_1w" type="car" departLane="best" departSpeed="max"/>
    <trip id="car_wb_194" depart="1613.66" from="N_out_3e_to_J3" to="J7_to_N_out_7" type="car" departLane="best" departSpeed="max"/>
    <trip id="car_wb_196" depart="1624.80" from="N_out_3e_to_J3" to="J1_to_N_out_1w" type="car" departLane="best" departSpeed="max"/>
    <trip id="car_wb_197" depart="1636.54" from="N_out_3e_to_J3" to="J1_to_N_out_1w" type="car" departLane="best" departSpeed="max"/>
    <trip id="car_wb_198" depart="1647.12" from="N_out_6_to_J6" to="J7_to_N_out_7" type="car" departLane="best" departSpeed="max"/>
    <trip id="car_wb_199" depart="1657.07" from="N_out_6_to_J6" to="J1_to_N_out_1w" type="car" departLane="best" departSpeed="max"/>
    <trip id="car_wb_200" depart="1671.09" from="N_out_6_to_J6" to="J1_to_N_out_1w" type="car" departLane="best" departSpeed="max"/>
    <trip id="car_wb_201" depart="1673.39" from="N_out_6_to_J6" to="J7_to_N_out_7s" type="car" departLane="best" departSpeed="max"/>
    <trip id="car_wb_202" depart="1676.98" from="N_out_3e_to_J3" to="J7_to_N_out_7" type="car" departLane="best" departSpeed="max"/>
    <trip id="car_wb_203" depart="1683.08" from="N_out_3e_to_J3" to="J1_to_N_out_1w" type="car" departLane="best" departSpeed="max"/>
    <trip id="car_wb_204" depart="1693.21" from="N_out_3e_to_J3" to="J7_to_N_out_7s" type="car" departLane="best" departSpeed="max"/>
    <trip id="car_wb_205" depart="1706.02" from="N_out_6_to_J6" to="J1_to_N_out_1w" type="car" departLane="best" departSpeed="max"/>
    <trip id="car_wb_206" depart="1721.26" from="N_out_6_to_J6" to="J1_to_N_out_1w" type="car" departLane="best" departSpeed="max"/>
    <trip id="car_wb_207" depart="1729.72" from="N_out_6_to_J6" to="J7_to_N_out_7" type="car" departLane="best" departSpeed="max"/>
    <trip id="car_wb_208" depart="1743.11" from="N_out_3e_to_J3" to="J1_to_N_out_1w" type="car" departLane="best" departSpeed="max"/>
    <trip id="car_wb_209" depart="1753.27" from="N_out_6_to_J6" to="J4_to_N_out_4" type="car" departLane="best" departSpeed="max"/>
    <trip id="car_wb_210" depart="1768.04" from="N_out_3e_to_J3" to="J1_to_N_out_1w" type="car" departLane="best" departSpeed="max"/>
    <trip id="car_wb_211" depart="1778.85" from="N_out_9s_to_J9" to="J4_to_N_out_4" type="car" departLane="best" departSpeed="max"/>
    <trip id="car_wb_212" depart="1790.04" from="N_out_9s_to_J9" to="J7_to_N_out_7" type="car" departLane="best" departSpeed="max"/>
    <trip id="car_wb_213" depart="1801.31" from="N_out_3e_to_J3" to="J7_to_N_out_7s" type="car" departLane="best" departSpeed="max"/>
    <trip id="car_wb_214" depart="1814.87" from="N_out_3e_to_J3" to="J1_to_N_out_1w" type="car" departLane="best" departSpeed="max"/>
    <trip id="car_wb_215" depart="1826.10" from="N_out_9s_to_J9" to="J7_to_N_out_7s" type="car" departLane="best" departSpeed="max"/>
    <trip id="car_wb_216" depart="1839.09" from="N_out_6_to_J6" to="J1_to_N_out_1w" type="car" departLane="best" departSpeed="max"/>
    <trip id="car_wb_217" depart="1840.76" from="N_out_6_to_J6" to="J4_to_N_out_4" type="car" departLane="best" departSpeed="max"/>
    <trip id="car_wb_218" depart="1852.41" from="N_out_9s_to_J9" to="J7_to_N_out_7s" type="car" departLane="best" departSpeed="max"/>
    <trip id="car_wb_219" depart="1864.37" from="N_out_6_to_J6" to="J1_to_N_out_1w" type="car" departLane="best" departSpeed="max"/>
    <trip id="car_wb_220" depart="1873.02" from="N_out_3e_to_J3" to="J1_to_N_out_1w" type="car" departLane="best" departSpeed="max"/>
    <trip id="car_wb_221" depart="1887.09" from="N_out_3e_to_J3" to="J7_to_N_out_7s" type="car" departLane="best" departSpeed="max"/>
    <trip id="car_wb_222" depart="1888.71" from="N_out_9s_to_J9" to="J7_to_N_out_7" type="car" departLane="best" departSpeed="max"/>
    <trip id="car_wb_223" depart="1899.09" from="N_out_3e_to_J3" to="J7_to_N_out_7" type="car" departLane="best" departSpeed="max"/>
    <trip id="car_wb_224" depart="1902.06" from="N_out_3e_to_J3" to="J4_to_N_out_4" type="car" departLane="best" departSpeed="max"/>