<?xml version="1.0" ?>
<edges>
  <edge id="e0" from="n0" to="n1" numLanes="2" speed="13.89"/>
  <edge id="e1" from="n1" to="n0" numLanes="2" speed="13.89"/>
  <edge id="e2" from="n1" to="n2" numLanes="2" speed="13.89"/>
  <edge id="e3" from="n2" to="n1" numLanes="2" speed="13.89"/>
  <edge id="e4" from="n3" to="n4" numLanes="2" speed="13.89"/>
  <edge id="e5" from="n4" to="n3" numLanes="2" speed="13.89"/>
  <edge id="e6" from="n4" to="n5" numLanes="2" speed="13.89"/>
  <edge id="e7" from="n5" to="n4" numLanes="2" speed="13.89"/>
  <edge id="e8" from="n6" to="n7" numLanes="2" speed="13.89"/>
  <edge id="e9" from="n7" to="n6" numLanes="2" speed="13.89"/>
  <edge id="e10" from="n7" to="n8" numLanes="2" speed="13.89"/>
  <edge id="e11" from="n8" to="n7" numLanes="2" speed="13.89"/>
  <edge id="e12" from="n0" to="n3" numLanes="2" speed="13.89"/>
  <edge id="e13" from="n3" to="n0" numLanes="2" speed="13.89"/>
  <edge id="e14" from="n3" to="n6" numLanes="2" speed="13.89"/>
  <edge id="e15" from="n6" to="n3" numLanes="2" speed="13.89"/>
  <edge id="e16" from="n1" to="n4" numLanes="2" speed="13.89"/>
  <edge id="e17" from="n4" to="n1" numLanes="2" speed="13.89"/>
  <edge id="e18" from="n4" to="n7" numLanes="2" speed="13.89"/>
  <edge id="e19" from="n7" to="n4" numLanes="2" speed="13.89"/>
  <edge id="e20" from="n2" to="n5" numLanes="2" speed="13.89"/>
  <edge id="e21" from="n5" to="n2" numLanes="2" speed="13.89"/>
  <edge id="e22" from="n5" to="n8" numLanes="2" speed="13.89"/>
  <edge id="e23" from="n8" to="n5" numLanes="2" speed="13.89"/>
  <edge id="e24" from="n_north_0" to="n6" numLanes="2" speed="13.89"/>
  <edge id="e25" from="n6" to="n_north_0" numLanes="2" speed="13.89"/>
  <edge id="e26" from="n_north_1" to="n7" numLanes="2" speed="13.89"/>
  <edge id="e27" from="n7" to="n_north_1" numLanes="2" speed="13.89"/>
  <edge id="e28" from="n_north_2" to="n8" numLanes="2" speed="13.89"/>
  <edge id="e29" from="n8" to="n_north_2" numLanes="2" speed="13.89"/>
  <edge id="e30" from="n_south_0" to="n0" numLanes="2" speed="13.89"/>
  <edge id="e31" from="n0" to="n_south_0" numLanes="2" speed="13.89"/>
  <edge id="e32" from="n_south_1" to="n1" numLanes="2" speed="13.89"/>
  <edge id="e33" from="n1" to="n_south_1" numLanes="2" speed="13.89"/>
  <edge id="e34" from="n_south_2" to="n2" numLanes="2" speed="13.89"/>
  <edge id="e35" from="n2" to="n_south_2" numLanes="2" speed="13.89"/>
  <edge id="e36" from="n_east_0" to="n2" numLanes="2" speed="13.89"/>
  <edge id="e37" from="n2" to="n_east_0" numLanes="2" speed="13.89"/>
  <edge id="e38" from="n_east_1" to="n5" numLanes="2" speed="13.89"/>
  <edge id="e39" from="n5" to="n_east_1" numLanes="2" speed="13.89"/>
  <edge id="e40" from="n_east_2" to="n8" numLanes="2" speed="13.89"/>
  <edge id="e41" from="n8" to="n_east_2" numLanes="2" speed="13.89"/>
  <edge id="e42" from="n_west_0" to="n0" numLanes="2" speed="13.89"/>
  <edge id="e43" from="n0" to="n_west_0" numLanes="2" speed="13.89"/>
  <edge id="e44" from="n_west_1" to="n3" numLanes="2" speed="13.89"/>
  <edge id="e45" from="n3" to="n_west_1" numLanes="2" speed="13.89"/>
  <edge id="e46" from="n_west_2" to="n6" numLanes="2" speed="13.89"/>
  <edge id="e47" from="n6" to="n_west_2" numLanes="2" speed="13.89"/>
</edges>
