<?xml version="1.0" ?>
<additional>
  <tlLogic id="n0" type="static" programID="custom" offset="0">
    <phase duration="30" state="GGGrrrrrGGGrrrrr"/>
    <phase duration="10" state="rrrGrrrrrrrGrrrr"/>
    <phase duration="4" state="yyyyrrrryyyyrrrr"/>
    <phase duration="2" state="rrrrrrrrrrrrrrrr"/>
    <phase duration="30" state="rrrrGGGrrrrrGGGr"/>
    <phase duration="10" state="rrrrrrrGrrrrrrrG"/>
    <phase duration="4" state="rrrryyyyrrrryyyy"/>
    <phase duration="2" state="rrrrrrrrrrrrrrrr"/>
  </tlLogic>
  <tlLogic id="n1" type="static" programID="custom" offset="0">
    <phase duration="30" state="GGGrrrrrGGGrrrrr"/>
    <phase duration="10" state="rrrGrrrrrrrGrrrr"/>
    <phase duration="4" state="yyyyrrrryyyyrrrr"/>
    <phase duration="2" state="rrrrrrrrrrrrrrrr"/>
    <phase duration="30" state="rrrrGGGrrrrrGGGr"/>
    <phase duration="10" state="rrrrrrrGrrrrrrrG"/>
    <phase duration="4" state="rrrryyyyrrrryyyy"/>
    <phase duration="2" state="rrrrrrrrrrrrrrrr"/>
  </tlLogic>
  <tlLogic id="n2" type="static" programID="custom" offset="0">
    <phase duration="30" state="GGGrrrrrGGGrrrrr"/>
    <phase duration="10" state="rrrGrrrrrrrGrrrr"/>
    <phase duration="4" state="yyyyrrrryyyyrrrr"/>
    <phase duration="2" state="rrrrrrrrrrrrrrrr"/>
    <phase duration="30" state="rrrrGGGrrrrrGGGr"/>
    <phase duration="10" state="rrrrrrrGrrrrrrrG"/>
    <phase duration="4" state="rrrryyyyrrrryyyy"/>
    <phase duration="2" state="rrrrrrrrrrrrrrrr"/>
  </tlLogic>
  <tlLogic id="n3" type="static" programID="custom" offset="0">
    <phase duration="30" state="GGGrrrrrGGGrrrrr"/>
    <phase duration="10" state="rrrGrrrrrrrGrrrr"/>
    <phase duration="4" state="yyyyrrrryyyyrrrr"/>
    <phase duration="2" state="rrrrrrrrrrrrrrrr"/>
    <phase duration="30" state="rrrrGGGrrrrrGGGr"/>
    <phase duration="10" state="rrrrrrrGrrrrrrrG"/>
    <phase duration="4" state="rrrryyyyrrrryyyy"/>
    <phase duration="2" state="rrrrrrrrrrrrrrrr"/>
  </tlLogic>
  <tlLogic id="n4" type="static" programID="custom" offset="0">
    <phase duration="30" state="GGGrrrrrGGGrrrrr"/>
    <phase duration="10" state="rrrGrrrrrrrGrrrr"/>
    <phase duration="4" state="yyyyrrrryyyyrrrr"/>
    <phase duration="2" state="rrrrrrrrrrrrrrrr"/>
    <phase duration="30" state="rrrrGGGrrrrrGGGr"/>
    <phase duration="10" state="rrrrrrrGrrrrrrrG"/>
    <phase duration="4" state="rrrryyyyrrrryyyy"/>
    <phase duration="2" state="rrrrrrrrrrrrrrrr"/>
  </tlLogic>
  <tlLogic id="n5" type="static" programID="custom" offset="0">
    <phase duration="30" state="GGGrrrrrGGGrrrrr"/>
    <phase duration="10" state="rrrGrrrrrrrGrrrr"/>
    <phase duration="4" state="yyyyrrrryyyyrrrr"/>
    <phase duration="2" state="rrrrrrrrrrrrrrrr"/>
    <phase duration="30" state="rrrrGGGrrrrrGGGr"/>
    <phase duration="10" state="rrrrrrrGrrrrrrrG"/>
    <phase duration="4" state="rrrryyyyrrrryyyy"/>
    <phase duration="2" state="rrrrrrrrrrrrrrrr"/>
  </tlLogic>
  <tlLogic id="n6" type="static" programID="custom" offset="0">
    <phase duration="30" state="GGGrrrrrGGGrrrrr"/>
    <phase duration="10" state="rrrGrrrrrrrGrrrr"/>
    <phase duration="4" state="yyyyrrrryyyyrrrr"/>
    <phase duration="2" state="rrrrrrrrrrrrrrrr"/>
    <phase duration="30" state="rrrrGGGrrrrrGGGr"/>
    <phase duration="10" state="rrrrrrrGrrrrrrrG"/>
    <phase duration="4" state="rrrryyyyrrrryyyy"/>
    <phase duration="2" state="rrrrrrrrrrrrrrrr"/>
  </tlLogic>
  <tlLogic id="n7" type="static" programID="custom" offset="0">
    <phase duration="30" state="GGGrrrrrGGGrrrrr"/>
    <phase duration="10" state="rrrGrrrrrrrGrrrr"/>
    <phase duration="4" state="yyyyrrrryyyyrrrr"/>
    <phase duration="2" state="rrrrrrrrrrrrrrrr"/>
    <phase duration="30" state="rrrrGGGrrrrrGGGr"/>
    <phase duration="10" state="rrrrrrrGrrrrrrrG"/>
    <phase duration="4" state="rrrryyyyrrrryyyy"/>
    <phase duration="2" state="rrrrrrrrrrrrrrrr"/>
  </tlLogic>
  <tlLogic id="n8" type="static" programID="custom" offset="0">
    <phase duration="30" state="GGGrrrrrGGGrrrrr"/>
    <phase duration="10" state="rrrGrrrrrrrGrrrr"/>
    <phase duration="4" state="yyyyrrrryyyyrrrr"/>
    <phase duration="2" state="rrrrrrrrrrrrrrrr"/>
    <phase duration="30" state="rrrrGGGrrrrrGGGr"/>
    <phase duration="10" state="rrrrrrrGrrrrrrrG"/>
    <phase duration="4" state="rrrryyyyrrrryyyy"/>
    <phase duration="2" state="rrrrrrrrrrrrrrrr"/>
  </tlLogic>
  <WAUT id="use_custom" startProg="custom" refTime="0">
    <wautJunction junctionID="n0" procedureOnChange="0" wautID="use_custom"/>
    <wautJunction junctionID="n1" procedureOnChange="0" wautID="use_custom"/>
    <wautJunction junctionID="n2" procedureOnChange="0" wautID="use_custom"/>
    <wautJunction junctionID="n3" procedureOnChange="0" wautID="use_custom"/>
    <wautJunction junctionID="n4" procedureOnChange="0" wautID="use_custom"/>
    <wautJunction junctionID="n5" procedureOnChange="0" wautID="use_custom"/>
    <wautJunction junctionID="n6" procedureOnChange="0" wautID="use_custom"/>
    <wautJunction junctionID="n7" procedureOnChange="0" wautID="use_custom"/>
    <wautJunction junctionID="n8" procedureOnChange="0" wautID="use_custom"/>
  </WAUT>
</additional>
